Info: SIMULATION PARAMETERS:
Info: TIMESTEP               2
Info: NUMBER OF STEPS        0
Info: STEPS PER CYCLE        10
Info: PERIODIC CELL BASIS 1  31.9114 0 0
Info: PERIODIC CELL BASIS 2  0 29.9931 0
Info: PERIODIC CELL BASIS 3  0 0 31.8393
Info: PERIODIC CELL CENTER   0 0 0
Info: WRAPPING WATERS AROUND PERIODIC BOUNDARIES ON OUTPUT.
Info: WRAPPING ALL CLUSTERS AROUND PERIODIC BOUNDARIES ON OUTPUT.
Info: FIRST LDB TIMESTEP     50
Info: LAST LDB TIMESTEP     -1
Info: HOM BACKGROUND SCALING 1
Info: PME BACKGROUND SCALING 1
Info: MIN ATOMS PER PATCH    40
Info: EMPTY PATCH LOAD       40 ATOMS
Info: VELOCITY FILE          mobley_2751110_equil.vel
Info: CENTER OF MASS MOVING INITIALLY? NO
Info: DIELECTRIC             1
Info: EXCLUDE                SCALED ONE-FOUR
Info: 1-4 ELECTROSTATICS SCALED BY 0.833333
Info: MODIFIED 1-4 VDW PARAMETERS WILL BE USED
Info: DCD FILENAME           mobley_2751110_prod.dcd
Info: DCD FREQUENCY          100000
Info: DCD FIRST STEP         100000
Info: DCD FILE WILL CONTAIN UNIT CELL DATA
Info: XST FILENAME           mobley_2751110_prod.xst
Info: XST FREQUENCY          100000
Info: NO VELOCITY DCD OUTPUT
Info: NO FORCE DCD OUTPUT
Info: OUTPUT FILENAME        mobley_2751110_prod
Info: BINARY OUTPUT FILES WILL BE USED
Info: RESTART FILENAME       mobley_2751110_prod.restart
Info: RESTART FREQUENCY      100000
Info: BINARY RESTART FILES WILL BE USED
Info: CUTOFF                 9
Info: PAIRLIST DISTANCE      11
Info: PAIRLIST SHRINK RATE   0.01
Info: PAIRLIST GROW RATE     0.01
Info: PAIRLIST TRIGGER       0.3
Info: PAIRLISTS PER CYCLE    2
Info: PAIRLISTS ENABLED
Info: MARGIN                 2
Info: HYDROGEN GROUP CUTOFF  2.5
Info: PATCH DIMENSION        15.5
Info: ENERGY OUTPUT STEPS    100000
Info: ENERGY EVALUATION STEPS    100000
Info: OUTPUT ENERGY PRECISION 4
Info: CROSSTERM ENERGY INCLUDED IN DIHEDRAL
Info: TIMING OUTPUT STEPS    1000000
Info: PRESSURE OUTPUT STEPS  100000
Info: ALCHEMICAL FEP ON
Info: FEP CURRENT LAMBDA VALUE     1
Info: FEP COMPARISON LAMBDA VALUE  0.95
Info: FEP INTRA-ALCHEMICAL NON-BONDED INTERACTIONS WILL BE RETAINED
Info: FEP INTRA-ALCHEMICAL BONDED INTERACTIONS WILL BE RETAINED
Info: FEP VDW SHIFTING COEFFICIENT 5
Info: FEP ELEC. ACTIVE FOR ANNIHILATED PARTICLES BETWEEN LAMBDA = 0 AND LAMBDA = 0.5
Info: FEP ELEC. ACTIVE FOR EXNIHILATED PARTICLES BETWEEN LAMBDA = 0.5 AND LAMBDA = 1
Info: FEP VDW ACTIVE FOR ANNIHILATED PARTICLES BETWEEN LAMBDA = 0 AND LAMBDA = 1
Info: FEP VDW ACTIVE FOR EXNIHILATED PARTICLES BETWEEN LAMBDA = 0 AND LAMBDA = 1
Info: FEP BOND ACTIVE FOR ANNIHILATED PARTICLES BETWEEN LAMBDA = 1 AND LAMBDA = 1
Info: FEP BOND ACTIVE FOR EXNIHILATED PARTICLES BETWEEN LAMBDA = 0 AND LAMBDA = 0
Info: LANGEVIN DYNAMICS ACTIVE
Info: LANGEVIN TEMPERATURE   300
Info: LANGEVIN USING BBK INTEGRATOR
Info: LANGEVIN DAMPING COEFFICIENT IS 1 INVERSE PS
Info: LANGEVIN DYNAMICS APPLIED TO HYDROGENS
Info: LANGEVIN PISTON PRESSURE CONTROL ACTIVE
Info:        TARGET PRESSURE IS 1.01325 BAR
Info:     OSCILLATION PERIOD IS 50 FS
Info:             DECAY TIME IS 25 FS
Info:     PISTON TEMPERATURE IS 300 K
Info:       PRESSURE CONTROL IS GROUP-BASED
Info:    INITIAL STRAIN RATE IS -0.000208496 -0.000208496 -0.000208496
Info:       CELL FLUCTUATION IS ISOTROPIC
Info: PARTICLE MESH EWALD (PME) ACTIVE
Info: PME TOLERANCE               1e-06
Info: PME EWALD COEFFICIENT       0.348832
Info: PME INTERPOLATION ORDER     4
Info: PME GRID DIMENSIONS         32 32 32
Info: PME MAXIMUM GRID SPACING    1
Info: PME CALCULATION WILL BE PERFORMED ON GPU
Info: FULL ELECTROSTATIC EVALUATION FREQUENCY      2
Info: USING VERLET I (r-RESPA) MTS SCHEME.
Info: C1 SPLITTING OF LONG RANGE ELECTROSTATICS
Info: PLACING ATOMS IN PATCHES BY HYDROGEN GROUPS
Info: RIGID BONDS TO HYDROGEN : ALL
Info:         ERROR TOLERANCE : 1e-08
Info:          MAX ITERATIONS : 100
Info: RIGID WATER USING SETTLE ALGORITHM
Info: RANDOM NUMBER SEED     1743752918
Info: USE HYDROGEN BONDS?    NO
Info: Using AMBER format force field!
Info: AMBER PARM FILE        mobley_2751110.prmtop
Info: COORDINATE PDB         mobley_2751110.pdb
Info: Exclusions will be read from PARM file!
Info: SCNB (VDW SCALING)     2
Info: USING ARITHMETIC MEAN TO COMBINE L-J SIGMA PARAMETERS
Info: BINARY COORDINATES     mobley_2751110_equil.coor
Info: SUMMARY OF PARAMETERS:
Info: 8 BONDS
Info: 7 ANGLES
Info:   7 HARMONIC
Info:   0 COSINE-BASED
Info: 4 DIHEDRAL
Info: 0 IMPROPER
Info: 0 CROSSTERM
Info: 0 VDW
Info: 28 VDW_PAIRS
Info: 0 NBTHOLE_PAIRS
Info: To read alchdata from file: mobley_2751110.pdb
Info: To read alchflag data from column: 5
Info: STRUCTURE SUMMARY:
Info: 2955 ATOMS
Info: 2955 BONDS
Info: 22 ANGLES
Info: 36 DIHEDRALS
Info: 0 IMPROPERS
Info: 0 CROSSTERMS
Info: 3004 EXCLUSIONS
Info: 2945 RIGID BONDS
Info: ALCH: 0 ATOMS TO DISAPPEAR IN FINAL STATE
Info: ALCH: 15 ATOMS TO APPEAR IN FINAL STATE
Info: 5920 DEGREES OF FREEDOM
Info: 990 HYDROGEN GROUPS
Info: 3 ATOMS IN LARGEST HYDROGEN GROUP
Info: 990 MIGRATION GROUPS
Info: 3 ATOMS IN LARGEST MIGRATION GROUP
Info: TOTAL MASS = 17794.8 amu
Info: TOTAL CHARGE = 3.72529e-08 e
Info: MASS DENSITY = 0.969668 g/cm^3
Info: ATOM DENSITY = 0.096968 atoms/A^3
Info: ADDED 0 IMPLICIT EXCLUSIONS
Info: NONBONDED TABLE R-SQUARED SPACING: 0.0625
Info: NONBONDED TABLE SIZE: 705 POINTS
Info: REMOVING COM VELOCITY -0.080755 -0.0388702 0.0788765
Info: Use 3D box decompostion in PME FFT.
Info: Updated CUDA force table with 4096 elements.
Info: Updated CUDA LJ table with 7 x 7 elements.
Info: Found 17 unique exclusion lists needing 36 bytes
TCL: Running for 1500000 steps
ETITLE: TS BOND ANGLE DIHED IMPRP ELECT VDW BOUNDARY MISC KINETIC TOTAL TEMP POTENTIAL TOTALAVG TEMPAVG PRESSURE GPRESSURE VOLUME PRESSAVG GPRESSAVG
ENERGY: 0 4.6622 5.6003 3.6253 0.0000 -10743.4314 1441.3375 0.0000 0.0000 1766.3357 -7521.8705 300.2907 -9288.2062 -7521.8705 300.2907 -39.2195 51.9683 30473.9819 -39.2195 51.9683
ENERGY: 300000 3.6287 6.2612 3.0542 0.0000 -10757.0434 1446.7812 0.0000 0.0000 1745.4533 -7551.8648 296.7406 -9297.3182 -7530.5642 299.5070 -37.7244 19.4441 30552.1902 -256.0616 -160.7239
ENERGY: 600000 3.6162 3.8348 7.6056 0.0000 -10678.9680 1411.1541 0.0000 0.0000 1767.1203 -7485.6370 300.4241 -9252.7572 -7529.1798 299.6433 -270.0379 -144.0839 30476.9146 -349.5369 -252.8169
ENERGY: 900000 1.9850 3.7452 1.9047 0.0000 -10780.0884 1489.6845 0.0000 0.0000 1720.1287 -7562.6403 292.4352 -9282.7689 -7527.0956 300.3791 128.2667 197.6314 30764.3231 -179.6900 -101.9315
ENERGY: 1200000 1.8207 3.6197 3.9647 0.0000 -10758.6778 1368.9166 0.0000 0.0000 1774.8404 -7605.5157 301.7366 -9380.3561 -7538.7027 299.8949 -477.1057 -485.4197 29974.9584 -205.8642 -144.2283
ENERGY: 1500000 7.6650 4.2545 3.6114 0.0000 -10799.4384 1471.3601 0.0000 0.0000 1738.8581 -7573.6893 295.6193 -9312.5474 -7534.2506 299.7354 125.6869 134.4990 30419.5972 -156.6356 -99.7454
TCL: Running FEP window   2: Lambda1 0.95   Lambda2 0.8999999999999999 [dLambda -0.050000000000000044]
TCL: Setting parameter firsttimestep to 0
TCL: Setting parameter alchLambda to 0.95
Info: NONBONDED TABLE R-SQUARED SPACING: 0.0625
Info: NONBONDED TABLE SIZE: 705 POINTS
TCL: Setting parameter alchLambda2 to 0.8999999999999999
Info: NONBONDED TABLE R-SQUARED SPACING: 0.0625
Info: NONBONDED TABLE SIZE: 705 POINTS
TCL: Running for 1500000 steps
ETITLE: TS BOND ANGLE DIHED IMPRP ELECT VDW BOUNDARY MISC KINETIC TOTAL TEMP POTENTIAL TOTALAVG TEMPAVG PRESSURE GPRESSURE VOLUME PRESSAVG GPRESSAVG
ENERGY: 0 7.6650 4.2545 3.6114 0.0000 -10797.2946 1470.3320 0.0000 0.0000 1737.9264 -7573.5053 295.4609 -9311.4317 -7573.5053 295.4609 23.5629 114.6283 30419.5972 23.5629 114.6283
ENERGY: 300000 3.8428 7.9589 3.6836 0.0000 -10732.6943 1520.2074 0.0000 0.0000 1706.0800 -7490.9216 290.0468 -9197.0016 -7554.2352 295.1564 435.4204 455.2963 31184.1155 201.0900 255.6201
ENERGY: 600000 3.9050 2.5144 2.5647 0.0000 -10812.2253 1460.8962 0.0000 0.0000 1756.4245 -7585.9206 298.6057 -9342.3451 -7531.6270 297.6857 21.3595 47.3213 30510.2203 51.1491 108.1481
ENERGY: 900000 2.8014 5.5085 10.5506 0.0000 -10765.1958 1526.1326 0.0000 0.0000 1808.9441 -7411.2585 307.5345 -9220.2026 -7515.4475 298.7863 768.1715 818.1174 30632.1331 52.9646 114.8390
ENERGY: 1200000 2.7341 1.5997 6.6517 0.0000 -10726.5074 1393.3666 0.0000 0.0000 1747.7282 -7574.4271 297.1273 -9322.1553 -7524.1609 298.5824 -443.1044 -393.0232 30459.6612 45.4728 113.0318
ENERGY: 1500000 2.3542 2.8872 5.9117 0.0000 -10761.5417 1459.4904 0.0000 0.0000 1802.7607 -7488.1375 306.4833 -9290.8982 -7509.3085 299.3342 148.7831 186.3681 30446.1671 16.8692 83.1244
TCL: Running FEP window   3: Lambda1 0.8999999999999999 Lambda2 0.8499999999999999 [dLambda -0.050000000000000044]
TCL: Setting parameter firsttimestep to 0
TCL: Setting parameter alchLambda to 0.8999999999999999
Info: NONBONDED TABLE R-SQUARED SPACING: 0.0625
Info: NONBONDED TABLE SIZE: 705 POINTS
TCL: Setting parameter alchLambda2 to 0.8499999999999999
Info: NONBONDED TABLE R-SQUARED SPACING: 0.0625
Info: NONBONDED TABLE SIZE: 705 POINTS
TCL: Running for 1500000 steps
ETITLE: TS BOND ANGLE DIHED IMPRP ELECT VDW BOUNDARY MISC KINETIC TOTAL TEMP POTENTIAL TOTALAVG TEMPAVG PRESSURE GPRESSURE VOLUME PRESSAVG GPRESSAVG
ENERGY: 0 2.3542 2.8872 5.9117 0.0000 -10758.8259 1458.4176 0.0000 0.0000 1801.8694 -7487.3859 306.3317 -9289.2553 -7487.3859 306.3317 82.2345 166.0447 30446.1671 82.2345 166.0447
ENERGY: 300000 1.4300 2.0873 6.6026 0.0000 -10774.8810 1527.5088 0.0000 0.0000 1785.9248 -7451.3276 303.6210 -9237.2524 -7483.1150 304.9055 794.2177 924.5885 30532.1760 120.5003 207.5006
ENERGY: 600000 8.2712 3.8210 3.2701 0.0000 -10643.0766 1340.0027 0.0000 0.0000 1750.4585 -7537.2531 297.5915 -9287.7116 -7513.5350 301.1032 -1026.6543 -945.5425 30387.7794 -107.1979 -31.8552
ENERGY: 900000 1.5183 2.6990 3.9964 0.0000 -10713.1602 1386.8587 0.0000 0.0000 1693.3902 -7624.6976 287.8894 -9318.0878 -7533.1137 299.1249 -317.3568 -269.6967 30261.8924 -154.5240 -88.7438
ENERGY: 1200000 3.3930 2.9648 4.3032 0.0000 -10720.2369 1387.7267 0.0000 0.0000 1769.4688 -7552.3803 300.8234 -9321.8491 -7532.3372 299.3967 -562.7056 -421.5702 30081.9096 -49.8345 21.1349
ENERGY: 1500000 5.5628 5.7668 2.6931 0.0000 -10754.0154 1438.9105 0.0000 0.0000 1719.5298 -7581.5525 292.3334 -9301.0823 -7526.5447 298.8283 -133.5609 -79.2892 30228.3239 22.4552 91.4539
TCL: Running FEP window   4: Lambda1 0.8499999999999999 Lambda2 0.7999999999999998 [dLambda -0.050000000000000044]
TCL: Setting parameter firsttimestep to 0
TCL: Setting parameter alchLambda to 0.8499999999999999
Info: NONBONDED TABLE R-SQUARED SPACING: 0.0625
Info: NONBONDED TABLE SIZE: 705 POINTS
TCL: Setting parameter alchLambda2 to 0.7999999999999998
Info: NONBONDED TABLE R-SQUARED SPACING: 0.0625
Info: NONBONDED TABLE SIZE: 705 POINTS
TCL: Running for 1500000 steps
ETITLE: TS BOND ANGLE DIHED IMPRP ELECT VDW BOUNDARY MISC KINETIC TOTAL TEMP POTENTIAL TOTALAVG TEMPAVG PRESSURE GPRESSURE VOLUME PRESSAVG GPRESSAVG
ENERGY: 0 5.5628 5.7668 2.6931 0.0000 -10751.5828 1438.1610 0.0000 0.0000 1718.6385 -7580.7606 292.1818 -9299.3991 -7580.7606 292.1818 -174.9406 -94.1167 30228.3239 -174.9406 -94.1167
ENERGY: 300000 5.3973 1.6316 3.1585 0.0000 -10751.3579 1434.8804 0.0000 0.0000 1758.1238 -7548.1663 298.8946 -9306.2901 -7568.9021 293.7756 -104.2996 -51.2590 30449.8536 -243.7578 -198.2219
ENERGY: 600000 5.1422 3.2539 4.0240 0.0000 -10659.8749 1389.0156 0.0000 0.0000 1793.7337 -7464.7054 304.9486 -9258.4391 -7560.1907 297.6158 -379.6633 -295.4949 30364.0457 -12.7191 31.1809
ENERGY: 900000 1.7130 2.8124 4.0193 0.0000 -10787.5445 1476.1746 0.0000 0.0000 1737.8624 -7564.9628 295.4500 -9302.8252 -7553.8324 297.9983 400.5698 463.1888 30172.5161 56.7849 99.8512
ENERGY: 1200000 3.3858 3.4851 1.5167 0.0000 -10869.9683 1586.1250 0.0000 0.0000 1792.2167 -7483.2389 304.6907 -9275.4556 -7538.0618 298.3427 1013.9877 1048.9146 30626.5167 210.6933 259.7835
ENERGY: 1500000 5.0263 2.4065 4.9741 0.0000 -10644.5585 1358.0171 0.0000 0.0000 1705.7569 -7568.3776 289.9919 -9274.1345 -7532.9095 297.7794 -819.2592 -800.4816 30630.4798 77.0357 128.3183
TCL: Running FEP window   5: Lambda1 0.7999999999999998 Lambda2 0.7499999999999998 [dLambda -0.050000000000000044]
TCL: Setting parameter firsttimestep to 0
TCL: Setting parameter alchLambda to 0.7999999999999998
Info: NONBONDED TABLE R-SQUARED SPACING: 0.0625
Info: NONBONDED TABLE SIZE: 705 POINTS
TCL: Setting parameter alchLambda2 to 0.7499999999999998
Info: NONBONDED TABLE R-SQUARED SPACING: 0.0625
Info: NONBONDED TABLE SIZE: 705 POINTS
TCL: Running for 1500000 steps
ETITLE: TS BOND ANGLE DIHED IMPRP ELECT VDW BOUNDARY MISC KINETIC TOTAL TEMP POTENTIAL TOTALAVG TEMPAVG PRESSURE GPRESSURE VOLUME PRESSAVG GPRESSAVG
ENERGY: 0 5.0263 2.4065 4.9741 0.0000 -10642.1399 1357.8466 0.0000 0.0000 1704.8977 -7566.9886 289.8458 -9271.8863 -7566.9886 289.8458 -885.5203 -809.4499 30630.4798 -885.5203 -809.4499
ENERGY: 300000 5.0001 2.7714 3.5396 0.0000 -10675.6523 1417.1512 0.0000 0.0000 1760.8471 -7486.3430 299.3576 -9247.1901 -7524.5369 296.6303 -201.2867 -172.0162 30532.9030 1.9925 67.4985
ENERGY: 600000 5.2958 2.3128 4.2159 0.0000 -10700.3228 1381.2666 0.0000 0.0000 1771.9610 -7535.2706 301.2471 -9307.2317 -7524.6762 297.8226 -880.7758 -854.3227 30794.7891 -135.7121 -85.7622
ENERGY: 900000 3.9523 8.7963 5.1804 0.0000 -10757.0352 1483.6851 0.0000 0.0000 1774.5549 -7480.8662 301.6881 -9255.4211 -7506.7674 299.5979 426.4491 442.8585 30684.0877 -22.6688 21.5775
ENERGY: 1200000 2.9036 3.6733 1.7308 0.0000 -10666.2227 1394.0819 0.0000 0.0000 1765.3944 -7498.4389 300.1307 -9263.8333 -7496.4432 300.4543 -284.0695 -237.8278 30251.4621 -133.0650 -83.3009
ENERGY: 1500000 5.1343 9.8129 5.1571 0.0000 -10724.3305 1428.4335 0.0000 0.0000 1761.4745 -7514.3183 299.4643 -9275.7928 -7503.6784 300.1080 -280.8664 -168.6871 30229.0440 -40.2480 18.1532
TCL: Running FEP window   6: Lambda1 0.7499999999999998 Lambda2 0.6999999999999997 [dLambda -0.050000000000000044]
TCL: Setting parameter firsttimestep to 0
TCL: Setting parameter alchLambda to 0.7499999999999998
Info: NONBONDED TABLE R-SQUARED SPACING: 0.0625
Info: NONBONDED TABLE SIZE: 705 POINTS
TCL: Setting parameter alchLambda2 to 0.6999999999999997
Info: NONBONDED TABLE R-SQUARED SPACING: 0.0625
Info: NONBONDED TABLE SIZE: 705 POINTS
TCL: Running for 1500000 steps
ETITLE: TS BOND ANGLE DIHED IMPRP ELECT VDW BOUNDARY MISC KINETIC TOTAL TEMP POTENTIAL TOTALAVG TEMPAVG PRESSURE GPRESSURE VOLUME PRESSAVG GPRESSAVG
ENERGY: 0 5.1343 9.8129 5.1571 0.0000 -10721.7725 1427.1427 0.0000 0.0000 1760.6025 -7513.9230 299.3160 -9274.5255 -7513.9230 299.3160 -269.3138 -187.1547 30229.0440 -269.3138 -187.1547
ENERGY: 300000 1.9271 3.9988 1.2835 0.0000 -10769.9267 1485.6170 0.0000 0.0000 1784.5824 -7492.5179 303.3928 -9277.1003 -7535.7582 298.4083 332.2302 369.7877 30370.4827 -79.3678 -23.3483
ENERGY: 600000 4.2676 6.9868 1.1537 0.0000 -10734.0304 1413.2224 0.0000 0.0000 1756.2298 -7552.1701 298.5726 -9308.3999 -7517.9792 298.0693 -309.2915 -243.1037 30017.0885 55.5558 113.9398
ENERGY: 900000 2.4043 2.4230 2.9045 0.0000 -10704.2430 1426.6696 0.0000 0.0000 1754.0366 -7515.8052 298.1998 -9269.8417 -7527.0261 297.4043 -129.6234 -14.2886 30273.0993 31.5287 102.5562
ENERGY: 1200000 1.5382 4.9500 5.2688 0.0000 -10841.4133 1497.1787 0.0000 0.0000 1739.4228 -7593.0549 295.7153 -9332.4776 -7538.7859 296.9257 470.8096 573.6061 29970.1843 78.6839 154.4911
ENERGY: 1500000 2.6627 1.6559 5.8739 0.0000 -10729.4368 1480.0713 0.0000 0.0000 1742.9151 -7496.2580 296.3090 -9239.1730 -7534.2310 297.8355 492.3549 512.8430 30138.8112 68.2200 139.1662
TCL: Running FEP window   7: Lambda1 0.6999999999999997 Lambda2 0.6499999999999997 [dLambda -0.050000000000000044]
TCL: Setting parameter firsttimestep to 0
TCL: Setting parameter alchLambda to 0.6999999999999997
Info: NONBONDED TABLE R-SQUARED SPACING: 0.0625
Info: NONBONDED TABLE SIZE: 705 POINTS
TCL: Setting parameter alchLambda2 to 0.6499999999999997
Info: NONBONDED TABLE R-SQUARED SPACING: 0.0625
Info: NONBONDED TABLE SIZE: 705 POINTS
TCL: Running for 1500000 steps
ETITLE: TS BOND ANGLE DIHED IMPRP ELECT VDW BOUNDARY MISC KINETIC TOTAL TEMP POTENTIAL TOTALAVG TEMPAVG PRESSURE GPRESSURE VOLUME PRESSAVG GPRESSAVG
ENERGY: 0 2.6627 1.6559 5.8739 0.0000 -10727.8544 1480.1022 0.0000 0.0000 1742.0520 -7495.5077 296.1623 -9237.5597 -7495.5077 296.1623 424.6534 506.9277 30138.8112 424.6534 506.9277
ENERGY: 300000 1.7653 3.3248 3.3477 0.0000 -10712.3349 1451.2672 0.0000 0.0000 1809.0731 -7443.5568 307.5564 -9252.6299 -7485.6108 299.9793 432.3934 538.9173 29989.6455 24.0229 108.4894
ENERGY: 600000 2.8947 5.8401 5.2138 0.0000 -10843.6011 1495.7006 0.0000 0.0000 1805.8997 -7528.0520 307.0169 -9333.9518 -7495.3109 300.5924 233.6238 297.1920 30172.4429 101.6656 178.1933
ENERGY: 900000 2.4031 2.7679 4.4242 0.0000 -10711.6503 1429.6722 0.0000 0.0000 1692.4045 -7579.9784 287.7218 -9272.3829 -7521.6622 299.9183 -293.2026 -175.4188 30586.7050 135.8523 215.4802
ENERGY: 1200000 2.0885 2.8257 4.6140 0.0000 -10633.6242 1393.3054 0.0000 0.0000 1713.9610 -7516.8295 291.3866 -9230.7906 -7517.7924 299.9049 -310.7945 -234.5938 30594.1769 21.7161 90.9144
ENERGY: 1500000 2.1217 2.2246 4.2838 0.0000 -10770.3678 1459.9656 0.0000 0.0000 1788.9297 -7512.8424 304.1319 -9301.7721 -7520.8859 300.0340 -8.8958 21.1389 30694.3845 -42.5001 18.8546
TCL: Running FEP window   8: Lambda1 0.6499999999999997 Lambda2 0.5999999999999996 [dLambda -0.050000000000000044]
TCL: Setting parameter firsttimestep to 0
TCL: Setting parameter alchLambda to 0.6499999999999997
Info: NONBONDED TABLE R-SQUARED SPACING: 0.0625
Info: NONBONDED TABLE SIZE: 705 POINTS
TCL: Setting parameter alchLambda2 to 0.5999999999999996
Info: NONBONDED TABLE R-SQUARED SPACING: 0.0625
Info: NONBONDED TABLE SIZE: 705 POINTS
TCL: Running for 1500000 steps
ETITLE: TS BOND ANGLE DIHED IMPRP ELECT VDW BOUNDARY MISC KINETIC TOTAL TEMP POTENTIAL TOTALAVG TEMPAVG PRESSURE GPRESSURE VOLUME PRESSAVG GPRESSAVG
ENERGY: 0 2.1217 2.2246 4.2838 0.0000 -10768.3461 1459.0640 0.0000 0.0000 1788.0539 -7512.5981 303.9830 -9300.6520 -7512.5981 303.9830 -81.5909 10.2466 30694.3845 -81.5909 10.2466
ENERGY: 300000 3.8510 3.8741 5.2169 0.0000 -10718.9777 1439.3916 0.0000 0.0000 1806.1717 -7460.4723 307.0632 -9266.6440 -7508.1507 302.0379 117.4912 186.6754 30262.4008 -31.5867 53.8867
ENERGY: 600000 5.3257 2.2514 9.8190 0.0000 -10605.3617 1418.1699 0.0000 0.0000 1759.4029 -7410.3928 299.1121 -9169.7957 -7508.2169 299.8575 -35.0821 56.5303 30754.6371 -169.4392 -88.9751
ENERGY: 900000 5.1315 2.9667 4.6107 0.0000 -10647.1252 1416.2554 0.0000 0.0000 1722.7982 -7495.3626 292.8890 -9218.1608 -7497.2488 299.0113 -129.1941 -42.6066 30475.7235 -94.5228 -10.5030
ENERGY: 1200000 3.0828 3.7839 6.2538 0.0000 -10644.5970 1409.8629 0.0000 0.0000 1773.9300 -7447.6836 301.5818 -9221.6136 -7497.5197 299.4723 -128.3535 -53.1205 30306.5289 -104.2944 -26.7843
ENERGY: 1500000 2.1663 2.0503 1.9054 0.0000 -10682.1713 1429.6164 0.0000 0.0000 1737.2154 -7509.2175 295.3401 -9246.4329 -7491.1728 300.0347 -90.2882 -38.3557 30452.2772 -91.4231 -19.5328
TCL: Running FEP window   9: Lambda1 0.5999999999999996 Lambda2 0.5499999999999996 [dLambda -0.050000000000000044]
TCL: Setting parameter firsttimestep to 0
TCL: Setting parameter alchLambda to 0.5999999999999996
Info: NONBONDED TABLE R-SQUARED SPACING: 0.0625
Info: NONBONDED TABLE SIZE: 705 POINTS
TCL: Setting parameter alchLambda2 to 0.5499999999999996
Info: NONBONDED TABLE R-SQUARED SPACING: 0.0625
Info: NONBONDED TABLE SIZE: 705 POINTS
TCL: Running for 1500000 steps
ETITLE: TS BOND ANGLE DIHED IMPRP ELECT VDW BOUNDARY MISC KINETIC TOTAL TEMP POTENTIAL TOTALAVG TEMPAVG PRESSURE GPRESSURE VOLUME PRESSAVG GPRESSAVG
ENERGY: 0 2.1663 2.0503 1.9054 0.0000 -10680.9639 1429.6630 0.0000 0.0000 1736.3265 -7508.8524 295.1889 -9245.1789 -7508.8524 295.1889 -128.8197 -48.3082 30452.2772 -128.8197 -48.3082
ENERGY: 300000 4.9944 6.1653 3.2789 0.0000 -10767.9779 1465.8913 0.0000 0.0000 1745.2942 -7542.3538 296.7135 -9287.6480 -7473.1786 300.5361 15.0885 71.7356 30355.4467 -493.5723 -425.0400
ENERGY: 600000 3.5781 4.6524 1.7341 0.0000 -10705.9415 1410.8278 0.0000 0.0000 1774.2432 -7510.9060 301.6351 -9285.1491 -7505.6069 300.7172 -368.8581 -312.0254 30515.1565 -333.1000 -275.2192
ENERGY: 900000 3.5362 2.3304 2.6648 0.0000 -10635.2880 1382.8476 0.0000 0.0000 1816.5753 -7427.3337 308.8319 -9243.9090 -7494.7967 301.3943 -502.7955 -537.0863 30814.7574 -440.8430 -381.2760
ENERGY: 1200000 5.8076 7.3460 4.0712 0.0000 -10731.4054 1455.7002 0.0000 0.0000 1782.4676 -7476.0129 303.0333 -9258.4805 -7497.0108 300.8187 297.2909 326.9041 30452.1243 -309.4504 -258.1620
ENERGY: 1500000 4.0637 2.2979 2.1251 0.0000 -10638.7724 1335.3282 0.0000 0.0000 1743.1251 -7551.8324 296.3447 -9294.9575 -7498.5037 301.0511 -800.3564 -725.8377 30420.6626 -183.7536 -129.1374
TCL: Running FEP window  10: Lambda1 0.5499999999999996 Lambda2 0.4999999999999996 [dLambda -0.04999999999999999]
TCL: Setting parameter firsttimestep to 0
TCL: Setting parameter alchLambda to 0.5499999999999996
Info: NONBONDED TABLE R-SQUARED SPACING: 0.0625
Info: NONBONDED TABLE SIZE: 705 POINTS
TCL: Setting parameter alchLambda2 to 0.4999999999999996
Info: NONBONDED TABLE R-SQUARED SPACING: 0.0625
Info: NONBONDED TABLE SIZE: 705 POINTS
TCL: Running for 1500000 steps
ETITLE: TS BOND ANGLE DIHED IMPRP ELECT VDW BOUNDARY MISC KINETIC TOTAL TEMP POTENTIAL TOTALAVG TEMPAVG PRESSURE GPRESSURE VOLUME PRESSAVG GPRESSAVG
ENERGY: 0 4.0638 2.2979 2.1251 0.0000 -10637.8761 1335.9106 0.0000 0.0000 1742.2402 -7551.2386 296.1943 -9293.4788 -7551.2386 296.1943 -808.6501 -727.4035 30420.6626 -808.6501 -727.4035
ENERGY: 300000 1.8214 5.1831 4.4030 0.0000 -10842.1459 1529.3767 0.0000 0.0000 1750.3436 -7551.0180 297.5720 -9301.3617 -7529.2639 298.7293 519.2928 592.9743 30399.8844 62.9215 133.2632
ENERGY: 600000 2.8309 2.0317 5.1437 0.0000 -10787.0803 1450.7234 0.0000 0.0000 1754.6070 -7571.7437 298.2968 -9326.3507 -7523.6112 300.1230 -200.9119 -96.9846 30555.8956 -61.9510 17.0382
ENERGY: 900000 4.4931 2.5843 1.2904 0.0000 -10709.6753 1424.0914 0.0000 0.0000 1833.4203 -7443.7958 311.6956 -9277.2161 -7516.5286 299.8716 16.1558 71.6053 30386.2691 -12.7140 61.3596
ENERGY: 1200000 2.5854 4.3202 1.4262 0.0000 -10765.0053 1498.4232 0.0000 0.0000 1765.2637 -7492.9866 300.1085 -9258.2504 -7502.3918 300.1316 498.7886 581.3822 30367.3853 175.7431 251.5534
ENERGY: 1500000 4.3148 3.8993 3.3586 0.0000 -10801.0361 1464.7001 0.0000 0.0000 1794.6005 -7530.1627 305.0960 -9324.7633 -7508.8927 300.0755 -245.7724 -153.3087 30735.8106 -12.2286 64.1408
TCL: Running FEP window  11: Lambda1 0.4999999999999996 Lambda2 0.4499999999999996 [dLambda -0.04999999999999999]
TCL: Setting parameter firsttimestep to 0
TCL: Setting parameter alchLambda to 0.4999999999999996
Info: NONBONDED TABLE R-SQUARED SPACING: 0.0625
Info: NONBONDED TABLE SIZE: 705 POINTS
TCL: Setting parameter alchLambda2 to 0.4499999999999996
Info: NONBONDED TABLE R-SQUARED SPACING: 0.0625
Info: NONBONDED TABLE SIZE: 705 POINTS
TCL: Running for 1500000 steps
ETITLE: TS BOND ANGLE DIHED IMPRP ELECT VDW BOUNDARY MISC KINETIC TOTAL TEMP POTENTIAL TOTALAVG TEMPAVG PRESSURE GPRESSURE VOLUME PRESSAVG GPRESSAVG
ENERGY: 0 4.3148 3.8993 3.3586 0.0000 -10801.1765 1465.4321 0.0000 0.0000 1793.7310 -7530.4406 304.9482 -9324.1716 -7530.4406 304.9482 -241.2580 -153.2055 30735.8106 -241.2580 -153.2055
ENERGY: 300000 2.3509 6.2731 3.4942 0.0000 -10747.7723 1447.5730 0.0000 0.0000 1758.5029 -7529.5782 298.9591 -9288.0811 -7492.5099 304.0830 320.4123 349.5846 29842.1174 -161.1830 -78.3899
ENERGY: 600000 2.6427 4.8388 3.5170 0.0000 -10825.9500 1494.1076 0.0000 0.0000 1746.6788 -7574.1651 296.9489 -9320.8439 -7514.0251 301.1971 71.2056 179.1667 30289.6791 -60.0708 20.3686
ENERGY: 900000 4.0254 2.8017 3.1223 0.0000 -10955.8275 1597.5713 0.0000 0.0000 1756.0173 -7592.2895 298.5365 -9348.3067 -7519.8104 300.9508 1218.6224 1259.5304 29719.7589 58.5951 128.7429
ENERGY: 1200000 2.7553 4.0250 4.9120 0.0000 -10750.9631 1486.7485 0.0000 0.0000 1739.6213 -7512.9009 295.7491 -9252.5222 -7504.4547 301.5840 661.7103 723.0795 30397.5884 137.4742 203.8738
ENERGY: 1500000 5.5260 1.2022 5.2092 0.0000 -10698.7150 1364.5607 0.0000 0.0000 1761.0631 -7561.1537 299.3943 -9322.2168 -7500.8874 301.1380 -679.8252 -573.7304 30426.0110 60.5662 126.2843
TCL: Running FEP window  12: Lambda1 0.4499999999999996 Lambda2 0.39999999999999963 [dLambda -0.04999999999999999]
TCL: Setting parameter firsttimestep to 0
TCL: Setting parameter alchLambda to 0.4499999999999996
Info: NONBONDED TABLE R-SQUARED SPACING: 0.0625
Info: NONBONDED TABLE SIZE: 705 POINTS
TCL: Setting parameter alchLambda2 to 0.39999999999999963
Info: NONBONDED TABLE R-SQUARED SPACING: 0.0625
Info: NONBONDED TABLE SIZE: 705 POINTS
TCL: Running for 1500000 steps
ETITLE: TS BOND ANGLE DIHED IMPRP ELECT VDW BOUNDARY MISC KINETIC TOTAL TEMP POTENTIAL TOTALAVG TEMPAVG PRESSURE GPRESSURE VOLUME PRESSAVG GPRESSAVG
ENERGY: 0 5.5260 1.2022 5.2092 0.0000 -10698.7147 1365.0385 0.0000 0.0000 1760.1874 -7561.5513 299.2455 -9321.7387 -7561.5513 299.2455 -667.3112 -577.3611 30426.0110 -667.3112 -577.3611
ENERGY: 300000 3.2799 3.6128 2.8440 0.0000 -10808.1008 1526.9365 0.0000 0.0000 1727.1912 -7544.2364 293.6359 -9271.4276 -7521.3713 298.2337 515.5282 575.2888 30706.9771 -248.1463 -167.8593
ENERGY: 600000 3.1991 2.6919 3.4970 0.0000 -10737.0774 1462.9081 0.0000 0.0000 1758.9508 -7505.8303 299.0352 -9264.7812 -7525.7608 298.1893 207.4122 335.8946 30022.6655 -112.9672 -27.8351
ENERGY: 900000 5.7440 3.9685 6.3673 0.0000 -10704.2054 1436.1207 0.0000 0.0000 1745.2490 -7506.7560 296.7058 -9252.0049 -7515.7475 298.6449 -207.4822 -166.2230 30602.2912 -193.4551 -113.4261
ENERGY: 1200000 2.8804 6.8955 3.3789 0.0000 -10845.6816 1503.9621 0.0000 0.0000 1789.2290 -7539.3356 304.1828 -9328.5646 -7515.1346 298.9154 311.3837 398.4596 30169.7579 -304.9576 -226.5838
ENERGY: 1500000 2.6539 2.5866 1.7233 0.0000 -10746.2572 1446.5732 0.0000 0.0000 1733.8167 -7558.9035 294.7622 -9292.7201 -7511.8937 299.3617 -29.6054 0.1928 30492.8322 -286.5337 -212.3488
TCL: Running FEP window  13: Lambda1 0.39999999999999963 Lambda2 0.34999999999999964 [dLambda -0.04999999999999999]
TCL: Setting parameter firsttimestep to 0
TCL: Setting parameter alchLambda to 0.39999999999999963
Info: NONBONDED TABLE R-SQUARED SPACING: 0.0625
Info: NONBONDED TABLE SIZE: 705 POINTS
TCL: Setting parameter alchLambda2 to 0.34999999999999964
Info: NONBONDED TABLE R-SQUARED SPACING: 0.0625
Info: NONBONDED TABLE SIZE: 705 POINTS
TCL: Running for 1500000 steps
ETITLE: TS BOND ANGLE DIHED IMPRP ELECT VDW BOUNDARY MISC KINETIC TOTAL TEMP POTENTIAL TOTALAVG TEMPAVG PRESSURE GPRESSURE VOLUME PRESSAVG GPRESSAVG
ENERGY: 0 2.6539 2.5866 1.7233 0.0000 -10746.2558 1446.7131 0.0000 0.0000 1732.9379 -7559.6409 294.6128 -9292.5788 -7559.6409 294.6128 -96.4258 -7.1017 30492.8322 -96.4258 -7.1017
ENERGY: 300000 3.7872 3.7492 1.9017 0.0000 -10789.0826 1499.0483 0.0000 0.0000 1800.5234 -7480.0729 306.1029 -9280.5962 -7517.4590 299.5199 362.9471 428.7394 30347.7998 -165.6760 -95.2733
ENERGY: 600000 3.6580 2.6649 2.3906 0.0000 -10772.2510 1484.4359 0.0000 0.0000 1744.3337 -7534.7679 296.5502 -9279.1016 -7506.7480 300.4381 -86.9029 -82.3273 30918.5342 -202.9179 -134.6548
ENERGY: 900000 2.8745 4.2858 3.6916 0.0000 -10654.7524 1448.5425 0.0000 0.0000 1761.0366 -7434.3213 299.3898 -9195.3580 -7512.2552 299.2343 -224.2926 -229.5341 31142.3186 -111.6274 -46.2391
ENERGY: 1200000 1.9423 5.2770 4.4083 0.0000 -10714.1271 1461.5134 0.0000 0.0000 1759.9283 -7481.0578 299.2014 -9240.9861 -7505.7189 299.1699 122.1093 203.6078 30470.5987 -71.7749 -13.2295
ENERGY: 1500000 3.0729 4.2052 5.8738 0.0000 -10740.5831 1432.3584 0.0000 0.0000 1715.5804 -7579.4924 291.6619 -9295.0727 -7501.1861 298.9639 -262.9037 -188.8390 30255.0642 -32.9674 27.5568
TCL: Running FEP window  14: Lambda1 0.34999999999999964 Lambda2 0.29999999999999966 [dLambda -0.04999999999999999]
TCL: Setting parameter firsttimestep to 0
TCL: Setting parameter alchLambda to 0.34999999999999964
Info: NONBONDED TABLE R-SQUARED SPACING: 0.0625
Info: NONBONDED TABLE SIZE: 705 POINTS
TCL: Setting parameter alchLambda2 to 0.29999999999999966
Info: NONBONDED TABLE R-SQUARED SPACING: 0.0625
Info: NONBONDED TABLE SIZE: 705 POINTS
TCL: Running for 1500000 steps
ETITLE: TS BOND ANGLE DIHED IMPRP ELECT VDW BOUNDARY MISC KINETIC TOTAL TEMP POTENTIAL TOTALAVG TEMPAVG PRESSURE GPRESSURE VOLUME PRESSAVG GPRESSAVG
ENERGY: 0 3.0729 4.2052 5.8738 0.0000 -10740.5834 1432.7745 0.0000 0.0000 1714.7047 -7579.9523 291.5131 -9294.6569 -7579.9523 291.5131 -271.7303 -192.7043 30255.0642 -271.7303 -192.7043
ENERGY: 300000 3.8009 2.2432 1.2303 0.0000 -10705.1805 1402.0746 0.0000 0.0000 1752.1412 -7543.6903 297.8776 -9295.8315 -7542.1802 295.3479 -551.0576 -445.6302 30754.8682 -156.9703 -64.5259
ENERGY: 600000 4.4396 2.5548 2.2757 0.0000 -10748.8532 1443.1890 0.0000 0.0000 1760.8354 -7535.5587 299.3556 -9296.3941 -7510.3335 296.7305 124.2958 161.2373 30127.2018 -191.1632 -104.9040
ENERGY: 900000 1.8185 5.4754 5.5833 0.0000 -10706.6806 1454.5804 0.0000 0.0000 1748.1907 -7491.0323 297.2059 -9239.2229 -7511.3540 298.0830 -116.1147 -47.2160 30794.3862 -166.8235 -86.4495
ENERGY: 1200000 1.8927 7.2769 3.6382 0.0000 -10782.5223 1446.9793 0.0000 0.0000 1716.2590 -7606.4762 291.7773 -9322.7352 -7513.5829 298.6309 155.1908 165.9358 29932.4951 -125.7830 -51.9860
ENERGY: 1500000 2.1150 1.7693 2.8729 0.0000 -10725.8474 1432.1715 0.0000 0.0000 1774.9484 -7511.9704 301.7550 -9286.9188 -7512.1806 299.4993 -100.6935 -42.5024 30229.6605 -182.1456 -113.7023
TCL: Running FEP window  15: Lambda1 0.29999999999999966 Lambda2 0.24999999999999967 [dLambda -0.04999999999999999]
TCL: Setting parameter firsttimestep to 0
TCL: Setting parameter alchLambda to 0.29999999999999966
Info: NONBONDED TABLE R-SQUARED SPACING: 0.0625
Info: NONBONDED TABLE SIZE: 705 POINTS
TCL: Setting parameter alchLambda2 to 0.24999999999999967
Info: NONBONDED TABLE R-SQUARED SPACING: 0.0625
Info: NONBONDED TABLE SIZE: 705 POINTS
TCL: Running for 1500000 steps
ETITLE: TS BOND ANGLE DIHED IMPRP ELECT VDW BOUNDARY MISC KINETIC TOTAL TEMP POTENTIAL TOTALAVG TEMPAVG PRESSURE GPRESSURE VOLUME PRESSAVG GPRESSAVG
ENERGY: 0 2.1150 1.7693 2.8729 0.0000 -10725.8470 1432.1903 0.0000 0.0000 1774.0994 -7512.8002 301.6106 -9286.8996 -7512.8002 301.6106 -129.0129 -46.4819 30229.6605 -129.0129 -46.4819
ENERGY: 300000 5.5223 3.3887 2.2511 0.0000 -10748.8388 1413.2190 0.0000 0.0000 1785.6576 -7538.8001 303.5756 -9324.4578 -7477.6906 303.0687 -563.7765 -502.4374 30155.2034 -242.8560 -183.7866
ENERGY: 600000 7.9210 4.8399 3.6676 0.0000 -10798.9160 1476.3690 0.0000 0.0000 1731.3103 -7574.8082 294.3361 -9306.1185 -7479.2995 302.0795 -93.4302 -76.0112 30388.5323 -344.7501 -297.0407
ENERGY: 900000 3.9316 1.5841 3.3085 0.0000 -10608.6279 1402.4626 0.0000 0.0000 1776.5409 -7420.8001 302.0257 -9197.3411 -7479.6511 301.0851 -298.8319 -236.3430 30748.6860 -370.2887 -309.0632
ENERGY: 1200000 3.7825 5.9947 1.7560 0.0000 -10760.5268 1421.6423 0.0000 0.0000 1761.3994 -7565.9519 299.4515 -9327.3513 -7499.7719 300.7036 -234.4793 -185.4738 30167.1026 -340.1023 -280.9977
ENERGY: 1500000 3.9148 2.7368 7.3630 0.0000 -10726.6559 1410.1436 0.0000 0.0000 1746.6139 -7555.8838 296.9379 -9302.4976 -7503.8850 300.0679 -538.6493 -549.8305 30609.8511 -274.5950 -214.9672
TCL: Running FEP window  16: Lambda1 0.24999999999999967 Lambda2 0.19999999999999968 [dLambda -0.04999999999999999]
TCL: Setting parameter firsttimestep to 0
TCL: Setting parameter alchLambda to 0.24999999999999967
Info: NONBONDED TABLE R-SQUARED SPACING: 0.0625
Info: NONBONDED TABLE SIZE: 705 POINTS
TCL: Setting parameter alchLambda2 to 0.19999999999999968
Info: NONBONDED TABLE R-SQUARED SPACING: 0.0625
Info: NONBONDED TABLE SIZE: 705 POINTS
TCL: Running for 1500000 steps
ETITLE: TS BOND ANGLE DIHED IMPRP ELECT VDW BOUNDARY MISC KINETIC TOTAL TEMP POTENTIAL TOTALAVG TEMPAVG PRESSURE GPRESSURE VOLUME PRESSAVG GPRESSAVG
ENERGY: 0 3.9148 2.7368 7.3630 0.0000 -10726.6544 1410.4830 0.0000 0.0000 1745.7138 -7556.4430 296.7849 -9302.1569 -7556.4430 296.7849 -638.3972 -550.8699 30609.8511 -638.3972 -550.8699
ENERGY: 300000 2.3281 3.3589 4.4398 0.0000 -10800.3689 1467.9518 0.0000 0.0000 1747.9138 -7574.3766 297.1589 -9322.2904 -7494.6975 299.1304 388.7907 475.7711 30043.6501 13.5540 72.8165
ENERGY: 600000 5.7930 4.5069 5.4117 0.0000 -10712.6922 1495.4288 0.0000 0.0000 1806.1973 -7395.3546 307.0675 -9201.5519 -7479.3224 301.3896 871.8927 868.3127 30271.4947 54.5043 106.8140
ENERGY: 900000 3.0694 4.6894 9.2492 0.0000 -10786.5835 1499.3451 0.0000 0.0000 1828.3954 -7441.8349 310.8414 -9270.2304 -7488.9806 302.3109 481.4137 519.2604 30167.8773 92.9379 140.8243
ENERGY: 1200000 2.6466 3.7847 6.7159 0.0000 -10638.8573 1395.7410 0.0000 0.0000 1719.2306 -7510.7384 292.2825 -9229.9690 -7489.0408 301.5508 -442.9327 -351.0696 30284.1433 -28.5301 16.0359
ENERGY: 1500000 3.7911 2.7731 2.9945 0.0000 -10693.3978 1401.2090 0.0000 0.0000 1706.0192 -7576.6108 290.0365 -9282.6300 -7498.9078 300.4265 -268.0040 -261.3151 30139.0559 -110.9291 -67.1056
TCL: Running FEP window  17: Lambda1 0.19999999999999968 Lambda2 0.1499999999999997 [dLambda -0.04999999999999999]
TCL: Setting parameter firsttimestep to 0
TCL: Setting parameter alchLambda to 0.19999999999999968
Info: NONBONDED TABLE R-SQUARED SPACING: 0.0625
Info: NONBONDED TABLE SIZE: 705 POINTS
TCL: Setting parameter alchLambda2 to 0.1499999999999997
Info: NONBONDED TABLE R-SQUARED SPACING: 0.0625
Info: NONBONDED TABLE SIZE: 705 POINTS
TCL: Running for 1500000 steps
ETITLE: TS BOND ANGLE DIHED IMPRP ELECT VDW BOUNDARY MISC KINETIC TOTAL TEMP POTENTIAL TOTALAVG TEMPAVG PRESSURE GPRESSURE VOLUME PRESSAVG GPRESSAVG
ENERGY: 0 3.7911 2.7731 2.9945 0.0000 -10693.3991 1401.0394 0.0000 0.0000 1705.1185 -7577.6824 289.8833 -9282.8009 -7577.6824 289.8833 -340.3760 -265.2551 30139.0559 -340.3760 -265.2551
ENERGY: 300000 2.8488 3.4101 2.0419 0.0000 -10904.2414 1544.7251 0.0000 0.0000 1750.5112 -7600.7043 297.6004 -9351.2155 -7550.7998 297.6122 645.8693 672.4217 30002.9737 -37.7864 23.6902
ENERGY: 600000 4.0922 5.1258 2.4103 0.0000 -10716.1600 1442.5088 0.0000 0.0000 1778.1478 -7483.8751 302.2989 -9262.0229 -7511.0802 300.0525 -17.1414 13.1629 30251.3785 -198.1419 -147.6841
ENERGY: 900000 5.0486 3.2091 2.6134 0.0000 -10655.6632 1367.9466 0.0000 0.0000 1755.8035 -7521.0420 298.5002 -9276.8456 -7521.5190 300.0267 -623.9564 -519.0136 30189.4936 -202.3085 -140.3047
ENERGY: 1200000 1.8288 3.3216 5.2080 0.0000 -10785.4176 1442.3397 0.0000 0.0000 1768.8778 -7563.8416 300.7229 -9332.7194 -7532.2146 299.9593 -281.5013 -204.7660 30364.6228 -156.6750 -90.0209
ENERGY: 1500000 3.5694 3.9637 3.1199 0.0000 -10576.5305 1340.0069 0.0000 0.0000 1802.7641 -7423.1065 306.4838 -9225.8706 -7520.9292 300.4650 -762.2818 -713.9916 30389.4926 -152.3285 -87.3111
TCL: Running FEP window  18: Lambda1 0.1499999999999997 Lambda2 0.09999999999999969 [dLambda -0.05 ]
TCL: Setting parameter firsttimestep to 0
TCL: Setting parameter alchLambda to 0.1499999999999997
Info: NONBONDED TABLE R-SQUARED SPACING: 0.0625
Info: NONBONDED TABLE SIZE: 705 POINTS
TCL: Setting parameter alchLambda2 to 0.09999999999999969
Info: NONBONDED TABLE R-SQUARED SPACING: 0.0625
Info: NONBONDED TABLE SIZE: 705 POINTS
TCL: Running for 1500000 steps
ETITLE: TS BOND ANGLE DIHED IMPRP ELECT VDW BOUNDARY MISC KINETIC TOTAL TEMP POTENTIAL TOTALAVG TEMPAVG PRESSURE GPRESSURE VOLUME PRESSAVG GPRESSAVG
ENERGY: 0 3.5694 3.9637 3.1199 0.0000 -10576.5305 1340.3326 0.0000 0.0000 1801.8757 -7423.6692 306.3328 -9225.5449 -7423.6692 306.3328 -803.7690 -714.8220 30389.4926 -803.7690 -714.8220
ENERGY: 300000 1.1739 4.0543 3.9670 0.0000 -10761.5002 1518.1089 0.0000 0.0000 1778.0229 -7456.1733 302.2776 -9234.1962 -7417.2228 300.9796 1019.7742 1075.7506 29787.9078 -400.7565 -350.5703
ENERGY: 600000 6.8875 6.6667 5.2345 0.0000 -10566.9204 1339.5737 0.0000 0.0000 1760.2886 -7448.2693 299.2627 -9208.5579 -7468.7036 299.1496 -839.1471 -776.0345 30205.4041 -309.8840 -264.0056
ENERGY: 900000 3.1887 2.3569 7.5603 0.0000 -10800.8122 1511.2077 0.0000 0.0000 1791.9760 -7484.5227 304.6498 -9276.4987 -7475.9910 299.8478 416.6865 542.7308 30362.1094 -238.1571 -174.7787
ENERGY: 1200000 4.1013 3.4673 3.8909 0.0000 -10725.4160 1412.6343 0.0000 0.0000 1745.4586 -7555.8636 296.7415 -9301.3222 -7489.9297 300.2149 -814.2117 -741.0696 31146.7684 -331.9163 -265.7204
ENERGY: 1500000 4.9553 2.9076 4.8322 0.0000 -10802.2025 1522.8397 0.0000 0.0000 1852.6735 -7413.9941 314.9688 -9266.6676 -7494.5846 301.0748 578.0877 591.3328 30634.8614 -270.8076 -205.6359
TCL: Running FEP window  19: Lambda1 0.09999999999999969 Lambda2 0.049999999999999684 [dLambda -0.05 ]
TCL: Setting parameter firsttimestep to 0
TCL: Setting parameter alchLambda to 0.09999999999999969
Info: NONBONDED TABLE R-SQUARED SPACING: 0.0625
Info: NONBONDED TABLE SIZE: 705 POINTS
TCL: Setting parameter alchLambda2 to 0.049999999999999684
Info: NONBONDED TABLE R-SQUARED SPACING: 0.0625
Info: NONBONDED TABLE SIZE: 705 POINTS
TCL: Running for 1500000 steps
ETITLE: TS BOND ANGLE DIHED IMPRP ELECT VDW BOUNDARY MISC KINETIC TOTAL TEMP POTENTIAL TOTALAVG TEMPAVG PRESSURE GPRESSURE VOLUME PRESSAVG GPRESSAVG
ENERGY: 0 4.9553 2.9076 4.8323 0.0000 -10802.2035 1522.5557 0.0000 0.0000 1851.7729 -7415.1797 314.8157 -9266.9527 -7415.1797 314.8157 512.5572 586.1573 30634.8614 512.5572 586.1573
ENERGY: 300000 4.4821 4.2793 4.3933 0.0000 -10663.5037 1415.1843 0.0000 0.0000 1792.5715 -7442.5932 304.7510 -9235.1647 -7441.9221 306.8806 -247.7665 -153.8865 30621.3547 -22.8153 53.7420
ENERGY: 600000 4.0014 3.2813 4.3239 0.0000 -10566.6991 1439.7714 0.0000 0.0000 1709.7179 -7405.6030 290.6653 -9115.3210 -7461.1479 303.4704 283.2584 310.7752 30745.7841 -192.5298 -120.3307
ENERGY: 900000 3.7632 3.5720 4.9060 0.0000 -10631.2229 1363.0482 0.0000 0.0000 1768.7897 -7487.1437 300.7079 -9255.9334 -7469.7322 301.8993 -427.4960 -370.1063 30333.5615 -212.2076 -139.5180
ENERGY: 1200000 1.9214 3.4457 3.4980 0.0000 -10638.3554 1419.6602 0.0000 0.0000 1803.9075 -7405.9225 306.6782 -9209.8301 -7467.4738 302.4010 -236.2956 -132.4303 30436.8261 -192.3277 -113.6907
ENERGY: 1500000 2.8230 4.2564 3.2333 0.0000 -10740.4561 1419.1669 0.0000 0.0000 1795.1885 -7515.7879 305.1959 -9310.9765 -7471.7921 301.9504 -526.8922 -412.5409 30474.7211 -217.1829 -136.3174
TCL: Running FEP window  20: Lambda1 0.049999999999999684 Lambda2 0.0    [dLambda -0.049999999999999684]
TCL: Setting parameter firsttimestep to 0
TCL: Setting parameter alchLambda to 0.049999999999999684
Info: NONBONDED TABLE R-SQUARED SPACING: 0.0625
Info: NONBONDED TABLE SIZE: 705 POINTS
TCL: Setting parameter alchLambda2 to 0.0
Info: NONBONDED TABLE R-SQUARED SPACING: 0.0625
Info: NONBONDED TABLE SIZE: 705 POINTS
TCL: Running for 1500000 steps
ETITLE: TS BOND ANGLE DIHED IMPRP ELECT VDW BOUNDARY MISC KINETIC TOTAL TEMP POTENTIAL TOTALAVG TEMPAVG PRESSURE GPRESSURE VOLUME PRESSAVG GPRESSAVG
ENERGY: 0 2.8230 4.2564 3.2333 0.0000 -10740.4545 1418.5359 0.0000 0.0000 1794.2913 -7517.3146 305.0434 -9311.6058 -7517.3146 305.0434 -509.6432 -417.3143 30474.7211 -509.6432 -417.3143
ENERGY: 300000 3.5095 2.7533 4.8311 0.0000 -10882.4107 1537.4801 0.0000 0.0000 1780.4749 -7553.3619 302.6945 -9333.8367 -7509.8538 303.8900 605.3022 652.7325 30280.0985 344.5883 425.9787
ENERGY: 600000 1.6967 3.2922 1.1393 0.0000 -10745.8348 1460.1935 0.0000 0.0000 1762.3882 -7517.1250 299.6196 -9279.5132 -7499.3716 302.2246 -66.3071 -43.2544 30612.9763 221.6285 296.0134
ENERGY: 900000 3.9124 3.7019 3.3044 0.0000 -10817.3833 1438.7298 0.0000 0.0000 1792.3655 -7575.3694 304.7160 -9367.7348 -7516.4025 301.6652 -568.3291 -524.6213 30594.9575 210.9224 283.6741
ENERGY: 1200000 1.1155 3.7539 2.1753 0.0000 -10746.2362 1431.8209 0.0000 0.0000 1738.3836 -7568.9870 295.5387 -9307.3706 -7515.7407 301.0562 -230.8536 -281.1302 30260.5261 54.1485 117.9847
ENERGY: 1500000 1.9216 1.6818 3.1745 0.0000 -10761.7882 1488.8524 0.0000 0.0000 1757.7651 -7508.3928 298.8337 -9266.1579 -7513.9413 301.2256 226.7657 261.3249 30406.0160 62.1418 120.9797
TCL: Exiting due to exit command.
