Info: SIMULATION PARAMETERS:
Info: TIMESTEP               2
Info: NUMBER OF STEPS        0
Info: STEPS PER CYCLE        10
Info: PERIODIC CELL BASIS 1  32.1458 0 0
Info: PERIODIC CELL BASIS 2  0 30.0971 0
Info: PERIODIC CELL BASIS 3  0 0 31.313
Info: PERIODIC CELL CENTER   0 0 0
Info: WRAPPING WATERS AROUND PERIODIC BOUNDARIES ON OUTPUT.
Info: WRAPPING ALL CLUSTERS AROUND PERIODIC BOUNDARIES ON OUTPUT.
Info: FIRST LDB TIMESTEP     50
Info: LAST LDB TIMESTEP     -1
Info: HOM BACKGROUND SCALING 1
Info: PME BACKGROUND SCALING 1
Info: MIN ATOMS PER PATCH    40
Info: EMPTY PATCH LOAD       40 ATOMS
Info: VELOCITY FILE          mobley_2929847_equil.vel
Info: CENTER OF MASS MOVING INITIALLY? NO
Info: DIELECTRIC             1
Info: EXCLUDE                SCALED ONE-FOUR
Info: 1-4 ELECTROSTATICS SCALED BY 0.833333
Info: MODIFIED 1-4 VDW PARAMETERS WILL BE USED
Info: DCD FILENAME           mobley_2929847_prod.dcd
Info: DCD FREQUENCY          100000
Info: DCD FIRST STEP         100000
Info: DCD FILE WILL CONTAIN UNIT CELL DATA
Info: XST FILENAME           mobley_2929847_prod.xst
Info: XST FREQUENCY          100000
Info: NO VELOCITY DCD OUTPUT
Info: NO FORCE DCD OUTPUT
Info: OUTPUT FILENAME        mobley_2929847_prod
Info: BINARY OUTPUT FILES WILL BE USED
Info: RESTART FILENAME       mobley_2929847_prod.restart
Info: RESTART FREQUENCY      100000
Info: BINARY RESTART FILES WILL BE USED
Info: CUTOFF                 9
Info: PAIRLIST DISTANCE      11
Info: PAIRLIST SHRINK RATE   0.01
Info: PAIRLIST GROW RATE     0.01
Info: PAIRLIST TRIGGER       0.3
Info: PAIRLISTS PER CYCLE    2
Info: PAIRLISTS ENABLED
Info: MARGIN                 2
Info: HYDROGEN GROUP CUTOFF  2.5
Info: PATCH DIMENSION        15.5
Info: ENERGY OUTPUT STEPS    100000
Info: ENERGY EVALUATION STEPS    100000
Info: OUTPUT ENERGY PRECISION 4
Info: CROSSTERM ENERGY INCLUDED IN DIHEDRAL
Info: TIMING OUTPUT STEPS    1000000
Info: PRESSURE OUTPUT STEPS  100000
Info: ALCHEMICAL FEP ON
Info: FEP CURRENT LAMBDA VALUE     0
Info: FEP COMPARISON LAMBDA VALUE  0.05
Info: FEP INTRA-ALCHEMICAL NON-BONDED INTERACTIONS WILL BE RETAINED
Info: FEP INTRA-ALCHEMICAL BONDED INTERACTIONS WILL BE RETAINED
Info: FEP VDW SHIFTING COEFFICIENT 5
Info: FEP ELEC. ACTIVE FOR ANNIHILATED PARTICLES BETWEEN LAMBDA = 0 AND LAMBDA = 0.5
Info: FEP ELEC. ACTIVE FOR EXNIHILATED PARTICLES BETWEEN LAMBDA = 0.5 AND LAMBDA = 1
Info: FEP VDW ACTIVE FOR ANNIHILATED PARTICLES BETWEEN LAMBDA = 0 AND LAMBDA = 1
Info: FEP VDW ACTIVE FOR EXNIHILATED PARTICLES BETWEEN LAMBDA = 0 AND LAMBDA = 1
Info: FEP BOND ACTIVE FOR ANNIHILATED PARTICLES BETWEEN LAMBDA = 1 AND LAMBDA = 1
Info: FEP BOND ACTIVE FOR EXNIHILATED PARTICLES BETWEEN LAMBDA = 0 AND LAMBDA = 0
Info: LANGEVIN DYNAMICS ACTIVE
Info: LANGEVIN TEMPERATURE   300
Info: LANGEVIN USING BBK INTEGRATOR
Info: LANGEVIN DAMPING COEFFICIENT IS 1 INVERSE PS
Info: LANGEVIN DYNAMICS APPLIED TO HYDROGENS
Info: LANGEVIN PISTON PRESSURE CONTROL ACTIVE
Info:        TARGET PRESSURE IS 1.01325 BAR
Info:     OSCILLATION PERIOD IS 50 FS
Info:             DECAY TIME IS 25 FS
Info:     PISTON TEMPERATURE IS 300 K
Info:       PRESSURE CONTROL IS GROUP-BASED
Info:    INITIAL STRAIN RATE IS -0.000237688 -0.000237688 -0.000237688
Info:       CELL FLUCTUATION IS ISOTROPIC
Info: PARTICLE MESH EWALD (PME) ACTIVE
Info: PME TOLERANCE               1e-06
Info: PME EWALD COEFFICIENT       0.348832
Info: PME INTERPOLATION ORDER     4
Info: PME GRID DIMENSIONS         36 32 32
Info: PME MAXIMUM GRID SPACING    1
Info: PME CALCULATION WILL BE PERFORMED ON GPU
Info: FULL ELECTROSTATIC EVALUATION FREQUENCY      2
Info: USING VERLET I (r-RESPA) MTS SCHEME.
Info: C1 SPLITTING OF LONG RANGE ELECTROSTATICS
Info: PLACING ATOMS IN PATCHES BY HYDROGEN GROUPS
Info: RIGID BONDS TO HYDROGEN : ALL
Info:         ERROR TOLERANCE : 1e-08
Info:          MAX ITERATIONS : 100
Info: RIGID WATER USING SETTLE ALGORITHM
Info: RANDOM NUMBER SEED     1743842815
Info: USE HYDROGEN BONDS?    NO
Info: Using AMBER format force field!
Info: AMBER PARM FILE        mobley_2929847.prmtop
Info: COORDINATE PDB         mobley_2929847.pdb
Info: Exclusions will be read from PARM file!
Info: SCNB (VDW SCALING)     2
Info: USING ARITHMETIC MEAN TO COMBINE L-J SIGMA PARAMETERS
Info: BINARY COORDINATES     mobley_2929847_equil.coor
Info: SUMMARY OF PARAMETERS:
Info: 8 BONDS
Info: 9 ANGLES
Info:   9 HARMONIC
Info:   0 COSINE-BASED
Info: 10 DIHEDRAL
Info: 0 IMPROPER
Info: 0 CROSSTERM
Info: 0 VDW
Info: 28 VDW_PAIRS
Info: 0 NBTHOLE_PAIRS
Info: To read alchdata from file: mobley_2929847.pdb
Info: To read alchflag data from column: 5
Info: STRUCTURE SUMMARY:
Info: 2957 ATOMS
Info: 2956 BONDS
Info: 28 ANGLES
Info: 41 DIHEDRALS
Info: 0 IMPROPERS
Info: 0 CROSSTERMS
Info: 3019 EXCLUSIONS
Info: 2950 RIGID BONDS
Info: ALCH: 0 ATOMS TO DISAPPEAR IN FINAL STATE
Info: ALCH: 17 ATOMS TO APPEAR IN FINAL STATE
Info: 5921 DEGREES OF FREEDOM
Info: 987 HYDROGEN GROUPS
Info: 4 ATOMS IN LARGEST HYDROGEN GROUP
Info: 987 MIGRATION GROUPS
Info: 4 ATOMS IN LARGEST MIGRATION GROUP
Info: TOTAL MASS = 17757.8 amu
Info: TOTAL CHARGE = 0.000100002 e
Info: MASS DENSITY = 0.973364 g/cm^3
Info: ATOM DENSITY = 0.0976063 atoms/A^3
Info: ADDED 0 IMPLICIT EXCLUSIONS
Info: NONBONDED TABLE R-SQUARED SPACING: 0.0625
Info: NONBONDED TABLE SIZE: 705 POINTS
Info: REMOVING COM VELOCITY 0.0758472 -0.00420765 0.178863
Info: Use 3D box decompostion in PME FFT.
Info: Updated CUDA force table with 4096 elements.
Info: Updated CUDA LJ table with 7 x 7 elements.
Info: Found 20 unique exclusion lists needing 48 bytes
TCL: Running for 1500000 steps
ETITLE: TS BOND ANGLE DIHED IMPRP ELECT VDW BOUNDARY MISC KINETIC TOTAL TEMP POTENTIAL TOTALAVG TEMPAVG PRESSURE GPRESSURE VOLUME PRESSAVG GPRESSAVG
ENERGY: 0 0.7386 12.0991 3.2460 0.0000 -10887.5409 1512.8302 0.0000 0.0000 1742.8270 -7615.8001 296.2440 -9358.6271 -7615.8001 296.2440 291.2991 379.6858 30295.1781 291.2991 379.6858
ENERGY: 300000 1.6817 5.9005 2.6574 0.0000 -10690.9630 1444.3807 0.0000 0.0000 1786.3061 -7450.0367 303.6346 -9236.3428 -7552.5687 296.8642 -43.5908 38.7606 31089.4108 -103.8456 -22.8557
ENERGY: 600000 2.8893 8.4355 2.7999 0.0000 -10696.1433 1351.9026 0.0000 0.0000 1785.0800 -7545.0360 303.4261 -9330.1160 -7533.5098 298.0624 -903.8045 -875.0944 30406.2480 -286.3806 -215.3995
ENERGY: 900000 3.8692 7.4688 2.9213 0.0000 -10801.1996 1485.1555 0.0000 0.0000 1726.0130 -7575.7718 293.3860 -9301.7848 -7535.8646 297.4580 141.9406 200.5317 30079.3801 -193.9340 -123.3614
ENERGY: 1200000 4.3320 7.8336 2.7048 0.0000 -10636.0759 1409.2430 0.0000 0.0000 1778.5078 -7433.4547 302.3090 -9211.9625 -7523.9034 298.9800 -213.6205 -114.7984 30348.8709 -188.3209 -117.0611
ENERGY: 1500000 0.5221 10.2003 3.7513 0.0000 -10908.0266 1587.7207 0.0000 0.0000 1761.9680 -7543.8642 299.4976 -9305.8323 -7525.6729 298.6442 1074.7291 1103.3239 30238.7254 -50.5179 17.8132
TCL: Running FEP window   2: Lambda1 0.05   Lambda2 0.1    [dLambda 0.05  ]
TCL: Setting parameter firsttimestep to 0
TCL: Setting parameter alchLambda to 0.05
Info: NONBONDED TABLE R-SQUARED SPACING: 0.0625
Info: NONBONDED TABLE SIZE: 705 POINTS
TCL: Setting parameter alchLambda2 to 0.1
Info: NONBONDED TABLE R-SQUARED SPACING: 0.0625
Info: NONBONDED TABLE SIZE: 705 POINTS
TCL: Running for 1500000 steps
ETITLE: TS BOND ANGLE DIHED IMPRP ELECT VDW BOUNDARY MISC KINETIC TOTAL TEMP POTENTIAL TOTALAVG TEMPAVG PRESSURE GPRESSURE VOLUME PRESSAVG GPRESSAVG
ENERGY: 0 0.5221 10.2003 3.7513 0.0000 -10908.0269 1588.4008 0.0000 0.0000 1761.0879 -7544.0645 299.3480 -9305.1524 -7544.0645 299.3480 1026.5058 1109.4444 30238.7254 1026.5058 1109.4444
ENERGY: 300000 1.9656 8.6453 2.3640 0.0000 -10636.2655 1395.9342 0.0000 0.0000 1774.3916 -7452.9647 301.6094 -9227.3564 -7492.1505 304.4333 -284.1751 -257.4257 30403.5536 155.6101 195.5001
ENERGY: 600000 3.1341 10.0216 3.1780 0.0000 -10681.8372 1429.2127 0.0000 0.0000 1756.6485 -7479.6423 298.5934 -9236.2908 -7494.9645 302.3656 -145.4447 -22.1769 30463.5396 65.3232 134.9159
ENERGY: 900000 2.7646 5.4435 3.2006 0.0000 -10753.1526 1469.1783 0.0000 0.0000 1717.0289 -7555.5368 291.8589 -9272.5656 -7506.0800 299.4221 239.9708 356.3071 30155.7236 79.3934 164.5570
ENERGY: 1200000 1.1770 5.1017 2.1862 0.0000 -10832.2701 1466.1411 0.0000 0.0000 1755.9623 -7601.7017 298.4768 -9357.6641 -7521.8653 299.4779 -276.2877 -227.5732 30575.7323 -20.7233 56.8108
ENERGY: 1500000 0.3645 6.0683 2.6544 0.0000 -10757.5482 1462.9080 0.0000 0.0000 1807.3025 -7478.2504 307.2035 -9285.5530 -7513.3568 300.3381 -31.0749 55.6931 30672.9154 -29.9457 47.9176
TCL: Running FEP window   3: Lambda1 0.1    Lambda2 0.15000000000000002 [dLambda 0.05000000000000002]
TCL: Setting parameter firsttimestep to 0
TCL: Setting parameter alchLambda to 0.1
Info: NONBONDED TABLE R-SQUARED SPACING: 0.0625
Info: NONBONDED TABLE SIZE: 705 POINTS
TCL: Setting parameter alchLambda2 to 0.15000000000000002
Info: NONBONDED TABLE R-SQUARED SPACING: 0.0625
Info: NONBONDED TABLE SIZE: 705 POINTS
TCL: Running for 1500000 steps
ETITLE: TS BOND ANGLE DIHED IMPRP ELECT VDW BOUNDARY MISC KINETIC TOTAL TEMP POTENTIAL TOTALAVG TEMPAVG PRESSURE GPRESSURE VOLUME PRESSAVG GPRESSAVG
ENERGY: 0 0.3645 6.0683 2.6544 0.0000 -10757.5478 1463.3821 0.0000 0.0000 1806.4432 -7478.6353 307.0574 -9285.0785 -7478.6353 307.0574 -27.8859 59.8571 30672.9154 -27.8859 59.8571
ENERGY: 300000 2.1095 5.2125 4.4711 0.0000 -10742.3499 1445.7927 0.0000 0.0000 1727.1968 -7557.5673 293.5872 -9284.7641 -7559.2989 298.6994 98.7416 167.8338 29924.1450 21.4517 93.4490
ENERGY: 600000 4.4246 8.4253 3.4134 0.0000 -10713.6704 1448.4385 0.0000 0.0000 1794.6032 -7454.3652 305.0449 -9248.9684 -7511.5220 300.2680 93.8476 98.4671 30056.8339 -116.3813 -47.5090
ENERGY: 900000 1.9732 7.0143 4.4109 0.0000 -10903.8110 1521.9180 0.0000 0.0000 1749.4547 -7619.0400 297.3706 -9368.4946 -7514.1664 300.6721 193.9213 249.0733 30499.2067 -24.4095 50.0362
ENERGY: 1200000 1.6717 7.8051 1.8068 0.0000 -10911.3961 1532.9762 0.0000 0.0000 1714.6704 -7652.4659 291.4580 -9367.1364 -7519.2337 300.1694 429.1957 524.0186 30047.7704 -0.8842 77.2546
ENERGY: 1500000 1.1451 8.0214 2.6966 0.0000 -10662.3199 1385.7917 0.0000 0.0000 1769.6453 -7495.0198 300.8026 -9264.6651 -7518.3090 300.2037 -635.4358 -560.7905 30678.0249 -14.4897 60.0079
TCL: Running FEP window   4: Lambda1 0.15000000000000002 Lambda2 0.2    [dLambda 0.04999999999999999]
TCL: Setting parameter firsttimestep to 0
TCL: Setting parameter alchLambda to 0.15000000000000002
Info: NONBONDED TABLE R-SQUARED SPACING: 0.0625
Info: NONBONDED TABLE SIZE: 705 POINTS
TCL: Setting parameter alchLambda2 to 0.2
Info: NONBONDED TABLE R-SQUARED SPACING: 0.0625
Info: NONBONDED TABLE SIZE: 705 POINTS
TCL: Running for 1500000 steps
ETITLE: TS BOND ANGLE DIHED IMPRP ELECT VDW BOUNDARY MISC KINETIC TOTAL TEMP POTENTIAL TOTALAVG TEMPAVG PRESSURE GPRESSURE VOLUME PRESSAVG GPRESSAVG
ENERGY: 0 1.1451 8.0214 2.6966 0.0000 -10662.3195 1386.9557 0.0000 0.0000 1768.7838 -7494.7169 300.6561 -9263.5007 -7494.7169 300.6561 -643.0735 -556.0872 30678.0249 -643.0735 -556.0872
ENERGY: 300000 2.7762 9.6882 2.4795 0.0000 -10777.5171 1470.2850 0.0000 0.0000 1802.3003 -7489.9880 306.3532 -9292.2883 -7497.0351 301.4513 90.3838 139.3989 30414.5926 -316.9517 -241.8154
ENERGY: 600000 1.2531 4.7198 3.2926 0.0000 -10583.2547 1335.7531 0.0000 0.0000 1801.9871 -7436.2491 306.3000 -9238.2362 -7511.5479 300.8346 -557.2429 -494.2849 30293.1081 -420.5447 -340.2376
ENERGY: 900000 1.0479 6.7641 4.9467 0.0000 -10797.6733 1465.2836 0.0000 0.0000 1804.5933 -7515.0378 306.7430 -9319.6311 -7518.9416 301.9468 -71.4933 50.5642 30482.4487 -162.3092 -78.7202
ENERGY: 1200000 2.2827 4.3212 3.9995 0.0000 -10688.1729 1371.1100 0.0000 0.0000 1755.7987 -7550.6609 298.4489 -9306.4596 -7518.8675 301.3309 -818.1239 -731.0710 30268.8706 -170.9565 -89.8647
ENERGY: 1500000 1.5070 7.4695 2.3040 0.0000 -10749.1523 1425.8613 0.0000 0.0000 1736.8296 -7575.1808 295.2246 -9312.0105 -7515.4647 300.4869 -1.6527 81.5085 30120.7213 -124.7520 -49.5673
TCL: Running FEP window   5: Lambda1 0.2    Lambda2 0.25   [dLambda 0.04999999999999999]
TCL: Setting parameter firsttimestep to 0
TCL: Setting parameter alchLambda to 0.2
Info: NONBONDED TABLE R-SQUARED SPACING: 0.0625
Info: NONBONDED TABLE SIZE: 705 POINTS
TCL: Setting parameter alchLambda2 to 0.25
Info: NONBONDED TABLE R-SQUARED SPACING: 0.0625
Info: NONBONDED TABLE SIZE: 705 POINTS
TCL: Running for 1500000 steps
ETITLE: TS BOND ANGLE DIHED IMPRP ELECT VDW BOUNDARY MISC KINETIC TOTAL TEMP POTENTIAL TOTALAVG TEMPAVG PRESSURE GPRESSURE VOLUME PRESSAVG GPRESSAVG
ENERGY: 0 1.5070 7.4695 2.3040 0.0000 -10749.1526 1426.2469 0.0000 0.0000 1735.9434 -7575.6817 295.0740 -9311.6252 -7575.6817 295.0740 -8.9240 88.6555 30120.7213 -8.9240 88.6555
ENERGY: 300000 3.2775 6.6733 2.2242 0.0000 -10767.5711 1485.9003 0.0000 0.0000 1788.7681 -7480.7277 304.0530 -9269.4958 -7547.9127 296.1916 444.9812 532.9922 30166.4569 78.8896 152.8185
ENERGY: 600000 1.5101 6.8084 5.9670 0.0000 -10597.1718 1365.1624 0.0000 0.0000 1792.5739 -7425.1501 304.6999 -9217.7239 -7508.6577 298.9054 -413.6324 -313.1107 30294.8970 -44.2578 27.0176
ENERGY: 900000 1.7845 5.2359 7.0987 0.0000 -10757.9813 1418.0446 0.0000 0.0000 1759.5661 -7566.2514 299.0893 -9325.8175 -7524.0973 298.6502 -293.5211 -184.3698 30181.2296 -77.1810 -5.6181
ENERGY: 1200000 2.8585 10.7786 7.5549 0.0000 -10694.3651 1386.5440 0.0000 0.0000 1743.1241 -7543.5051 296.2945 -9286.6291 -7533.4838 298.2730 -807.3502 -650.4154 30457.5932 -104.6819 -29.7258
ENERGY: 1500000 3.4465 8.3026 6.9793 0.0000 -10756.9348 1495.5841 0.0000 0.0000 1785.0360 -7457.5863 303.4187 -9242.6223 -7525.6801 298.9734 260.1708 332.5437 30335.3406 -33.4038 40.3715
TCL: Running FEP window   6: Lambda1 0.25   Lambda2 0.3    [dLambda 0.04999999999999999]
TCL: Setting parameter firsttimestep to 0
TCL: Setting parameter alchLambda to 0.25
Info: NONBONDED TABLE R-SQUARED SPACING: 0.0625
Info: NONBONDED TABLE SIZE: 705 POINTS
TCL: Setting parameter alchLambda2 to 0.3
Info: NONBONDED TABLE R-SQUARED SPACING: 0.0625
Info: NONBONDED TABLE SIZE: 705 POINTS
TCL: Running for 1500000 steps
ETITLE: TS BOND ANGLE DIHED IMPRP ELECT VDW BOUNDARY MISC KINETIC TOTAL TEMP POTENTIAL TOTALAVG TEMPAVG PRESSURE GPRESSURE VOLUME PRESSAVG GPRESSAVG
ENERGY: 0 3.4465 8.3026 6.9793 0.0000 -10756.9362 1496.2403 0.0000 0.0000 1784.1696 -7457.7978 303.2714 -9241.9675 -7457.7978 303.2714 244.0544 338.0897 30335.3406 244.0544 338.0897
ENERGY: 300000 0.9611 11.7996 6.2503 0.0000 -10668.4740 1441.8792 0.0000 0.0000 1818.3902 -7389.1937 309.0882 -9207.5839 -7453.9986 303.0510 77.8084 90.0233 30838.8183 -84.4986 -25.4214
ENERGY: 600000 1.5084 11.5971 6.1894 0.0000 -10788.9437 1409.4835 0.0000 0.0000 1789.3346 -7570.8307 304.1493 -9360.1653 -7473.9200 302.1283 -514.8925 -413.4901 30463.8631 -150.9500 -67.6610
ENERGY: 900000 3.6768 8.1366 5.4717 0.0000 -10887.7277 1517.6266 0.0000 0.0000 1776.7265 -7576.0894 302.0062 -9352.8159 -7488.3353 302.4357 511.8250 571.2823 29877.8840 -81.3250 0.6188
ENERGY: 1200000 3.7358 10.6750 6.0469 0.0000 -10927.4159 1528.9381 0.0000 0.0000 1676.9503 -7701.0699 285.0464 -9378.0202 -7505.8291 302.0367 501.4260 545.5941 30108.5240 -55.1163 13.6009
ENERGY: 1500000 1.6223 11.4231 8.0330 0.0000 -10759.2748 1419.2945 0.0000 0.0000 1756.3567 -7562.5452 298.5438 -9318.9019 -7506.8333 301.8039 -194.2405 -167.8039 30179.8647 -31.6750 35.6784
TCL: Running FEP window   7: Lambda1 0.3    Lambda2 0.35   [dLambda 0.04999999999999999]
TCL: Setting parameter firsttimestep to 0
TCL: Setting parameter alchLambda to 0.3
Info: NONBONDED TABLE R-SQUARED SPACING: 0.0625
Info: NONBONDED TABLE SIZE: 705 POINTS
TCL: Setting parameter alchLambda2 to 0.35
Info: NONBONDED TABLE R-SQUARED SPACING: 0.0625
Info: NONBONDED TABLE SIZE: 705 POINTS
TCL: Running for 1500000 steps
ETITLE: TS BOND ANGLE DIHED IMPRP ELECT VDW BOUNDARY MISC KINETIC TOTAL TEMP POTENTIAL TOTALAVG TEMPAVG PRESSURE GPRESSURE VOLUME PRESSAVG GPRESSAVG
ENERGY: 0 1.6223 11.4231 8.0330 0.0000 -10759.2751 1419.8742 0.0000 0.0000 1755.4405 -7562.8819 298.3881 -9318.3225 -7562.8819 298.3881 -260.0759 -161.0115 30179.8647 -260.0759 -161.0115
ENERGY: 300000 4.5294 9.5792 6.4486 0.0000 -10663.0675 1355.8695 0.0000 0.0000 1772.8586 -7513.7821 301.3488 -9286.6407 -7527.4013 299.3819 -864.3937 -767.5155 30494.2940 36.2124 133.0368
ENERGY: 600000 2.4475 6.8097 6.9040 0.0000 -10654.4111 1406.0338 0.0000 0.0000 1793.0880 -7439.1281 304.7873 -9232.2162 -7530.0645 299.0996 -100.6390 -41.1536 30440.9888 -12.4475 71.3486
ENERGY: 900000 2.5644 11.8625 6.8464 0.0000 -10666.6303 1389.7575 0.0000 0.0000 1718.8720 -7536.7275 292.1722 -9255.5994 -7534.2421 298.3580 -540.6342 -487.3002 30705.8466 -169.3100 -88.1998
ENERGY: 1200000 4.0222 7.2558 7.1061 0.0000 -10527.1009 1314.9900 0.0000 0.0000 1785.2143 -7408.5124 303.4490 -9193.7268 -7523.5461 299.7029 -978.7983 -866.2858 30716.7714 -177.5987 -87.9437
ENERGY: 1500000 4.5701 14.3938 7.2027 0.0000 -10724.6974 1387.8807 0.0000 0.0000 1727.7291 -7582.9210 293.6777 -9310.6501 -7530.1516 299.1016 -567.7583 -438.3260 30455.0685 -135.8265 -41.2091
TCL: Running FEP window   8: Lambda1 0.35   Lambda2 0.39999999999999997 [dLambda 0.04999999999999999]
TCL: Setting parameter firsttimestep to 0
TCL: Setting parameter alchLambda to 0.35
Info: NONBONDED TABLE R-SQUARED SPACING: 0.0625
Info: NONBONDED TABLE SIZE: 705 POINTS
TCL: Setting parameter alchLambda2 to 0.39999999999999997
Info: NONBONDED TABLE R-SQUARED SPACING: 0.0625
Info: NONBONDED TABLE SIZE: 705 POINTS
TCL: Running for 1500000 steps
ETITLE: TS BOND ANGLE DIHED IMPRP ELECT VDW BOUNDARY MISC KINETIC TOTAL TEMP POTENTIAL TOTALAVG TEMPAVG PRESSURE GPRESSURE VOLUME PRESSAVG GPRESSAVG
ENERGY: 0 4.5701 14.3938 7.2027 0.0000 -10724.6965 1388.3772 0.0000 0.0000 1726.8456 -7583.3071 293.5275 -9310.1527 -7583.3071 293.5275 -516.5989 -428.5426 30455.0685 -516.5989 -428.5426
ENERGY: 300000 0.6011 4.7627 6.3525 0.0000 -10579.5041 1386.3458 0.0000 0.0000 1799.2460 -7382.1961 305.8341 -9181.4421 -7490.0852 299.6281 -254.6265 -147.5418 30561.4872 -189.4796 -103.6358
ENERGY: 600000 1.0667 12.2119 8.3862 0.0000 -10758.7836 1486.9915 0.0000 0.0000 1803.4688 -7446.6585 306.5519 -9250.1273 -7508.7238 299.3506 434.2331 569.3106 30159.3993 33.2891 120.0401
ENERGY: 900000 0.5948 12.8016 6.4181 0.0000 -10838.4588 1557.2620 0.0000 0.0000 1793.1952 -7468.1872 304.8056 -9261.3823 -7512.2889 298.4344 477.5955 648.6204 31155.5128 -54.6996 28.7153
ENERGY: 1200000 1.3891 7.6131 5.6571 0.0000 -10703.6526 1409.9256 0.0000 0.0000 1703.4658 -7575.6018 289.5535 -9279.0677 -7528.3526 296.5998 -280.0892 -204.9111 30257.3980 37.4192 114.0255
ENERGY: 1500000 0.9531 9.5882 6.5134 0.0000 -10708.9121 1391.1916 0.0000 0.0000 1806.1068 -7494.5590 307.0003 -9300.6658 -7529.3244 297.2392 -332.4599 -307.8458 30234.0962 -44.5468 25.1961
TCL: Running FEP window   9: Lambda1 0.39999999999999997 Lambda2 0.44999999999999996 [dLambda 0.04999999999999999]
TCL: Setting parameter firsttimestep to 0
TCL: Setting parameter alchLambda to 0.39999999999999997
Info: NONBONDED TABLE R-SQUARED SPACING: 0.0625
Info: NONBONDED TABLE SIZE: 705 POINTS
TCL: Setting parameter alchLambda2 to 0.44999999999999996
Info: NONBONDED TABLE R-SQUARED SPACING: 0.0625
Info: NONBONDED TABLE SIZE: 705 POINTS
TCL: Running for 1500000 steps
ETITLE: TS BOND ANGLE DIHED IMPRP ELECT VDW BOUNDARY MISC KINETIC TOTAL TEMP POTENTIAL TOTALAVG TEMPAVG PRESSURE GPRESSURE VOLUME PRESSAVG GPRESSAVG
ENERGY: 0 0.9531 9.5882 6.5134 0.0000 -10708.9128 1391.0736 0.0000 0.0000 1805.2508 -7495.5337 306.8548 -9300.7845 -7495.5337 306.8548 -387.8253 -302.9287 30234.0962 -387.8253 -302.9287
ENERGY: 300000 2.9382 5.2190 7.2085 0.0000 -10597.6850 1338.1227 0.0000 0.0000 1728.4425 -7515.7542 293.7990 -9244.1967 -7528.9046 298.4905 -907.3724 -810.9808 30532.7685 -351.1694 -269.3437
ENERGY: 600000 1.4212 6.1836 6.7006 0.0000 -10609.9540 1347.2772 0.0000 0.0000 1786.8602 -7461.5112 303.7287 -9248.3714 -7514.2833 300.4979 -784.4283 -693.4805 30673.1661 -107.5718 -18.6482
ENERGY: 900000 1.5755 10.3698 7.1758 0.0000 -10761.9979 1454.3047 0.0000 0.0000 1779.5466 -7509.0256 302.4856 -9288.5722 -7513.3605 300.1286 55.4304 136.1981 30202.0229 -179.4960 -91.6216
ENERGY: 1200000 2.5209 7.5003 7.9181 0.0000 -10715.8508 1377.6245 0.0000 0.0000 1716.6778 -7603.6091 291.7992 -9320.2869 -7514.5242 299.9165 -589.8367 -578.9029 30302.9428 -217.8983 -138.1202
ENERGY: 1500000 3.9422 9.7843 5.9279 0.0000 -10837.5093 1496.3067 0.0000 0.0000 1761.4039 -7560.1444 299.4017 -9321.5483 -7515.1634 300.5119 134.3211 183.9345 30599.1595 -212.7579 -133.4854
TCL: Running FEP window  10: Lambda1 0.44999999999999996 Lambda2 0.49999999999999994 [dLambda 0.04999999999999999]
TCL: Setting parameter firsttimestep to 0
TCL: Setting parameter alchLambda to 0.44999999999999996
Info: NONBONDED TABLE R-SQUARED SPACING: 0.0625
Info: NONBONDED TABLE SIZE: 705 POINTS
TCL: Setting parameter alchLambda2 to 0.49999999999999994
Info: NONBONDED TABLE R-SQUARED SPACING: 0.0625
Info: NONBONDED TABLE SIZE: 705 POINTS
TCL: Running for 1500000 steps
ETITLE: TS BOND ANGLE DIHED IMPRP ELECT VDW BOUNDARY MISC KINETIC TOTAL TEMP POTENTIAL TOTALAVG TEMPAVG PRESSURE GPRESSURE VOLUME PRESSAVG GPRESSAVG
ENERGY: 0 3.9422 9.7843 5.9279 0.0000 -10837.5091 1497.3455 0.0000 0.0000 1760.5463 -7559.9628 299.2559 -9320.5092 -7559.9628 299.2559 130.6280 196.0891 30599.1595 130.6280 196.0891
ENERGY: 300000 3.3159 7.1075 5.8596 0.0000 -10828.4109 1502.9138 0.0000 0.0000 1751.7183 -7557.4958 297.7554 -9309.2140 -7507.9225 301.2742 115.6682 191.8212 30879.5957 -172.9791 -134.2152
ENERGY: 600000 1.6117 13.9556 6.5149 0.0000 -10798.5846 1479.2598 0.0000 0.0000 1760.5051 -7536.7376 299.2489 -9297.2427 -7513.8198 300.9782 235.5949 282.4650 30378.9129 -257.1930 -198.0082
ENERGY: 900000 3.7230 10.3461 5.4392 0.0000 -10838.6964 1497.2495 0.0000 0.0000 1751.1121 -7570.8265 297.6523 -9321.9386 -7527.8058 299.9859 198.5524 263.2973 30269.2534 -168.9869 -107.2295
ENERGY: 1200000 1.4798 7.6066 5.7229 0.0000 -10755.9683 1448.0921 0.0000 0.0000 1719.5859 -7573.4811 292.2935 -9293.0670 -7522.1061 298.5121 47.6092 117.0377 30144.2124 -243.0457 -172.4089
ENERGY: 1500000 3.3067 10.0326 8.1325 0.0000 -10845.8450 1459.8947 0.0000 0.0000 1728.9082 -7635.5703 293.8781 -9364.4785 -7519.6014 299.3257 -136.6071 -16.5090 30029.4808 -171.8380 -102.2655
TCL: Running FEP window  11: Lambda1 0.49999999999999994 Lambda2 0.5499999999999999 [dLambda 0.04999999999999999]
TCL: Setting parameter firsttimestep to 0
TCL: Setting parameter alchLambda to 0.49999999999999994
Info: NONBONDED TABLE R-SQUARED SPACING: 0.0625
Info: NONBONDED TABLE SIZE: 705 POINTS
TCL: Setting parameter alchLambda2 to 0.5499999999999999
Info: NONBONDED TABLE R-SQUARED SPACING: 0.0625
Info: NONBONDED TABLE SIZE: 705 POINTS
TCL: Running for 1500000 steps
ETITLE: TS BOND ANGLE DIHED IMPRP ELECT VDW BOUNDARY MISC KINETIC TOTAL TEMP POTENTIAL TOTALAVG TEMPAVG PRESSURE GPRESSURE VOLUME PRESSAVG GPRESSAVG
ENERGY: 0 3.3067 10.0326 8.1325 0.0000 -10845.8438 1460.0211 0.0000 0.0000 1728.0469 -7636.3040 293.7317 -9364.3509 -7636.3040 293.7317 -93.0043 -11.0720 30029.4808 -93.0043 -11.0720
ENERGY: 300000 2.5937 11.3328 5.7980 0.0000 -10662.6037 1425.9028 0.0000 0.0000 1724.9782 -7491.9981 293.2101 -9216.9764 -7528.3173 295.5831 262.0795 267.1695 30225.7213 37.0799 100.6017
ENERGY: 600000 1.0581 9.3733 6.0260 0.0000 -10748.5254 1444.3363 0.0000 0.0000 1753.8635 -7533.8682 298.1200 -9287.7317 -7492.6669 299.4484 92.1738 138.4357 30243.6771 -50.6349 -3.5660
ENERGY: 900000 1.1351 9.5263 6.2111 0.0000 -10532.0714 1352.9311 0.0000 0.0000 1735.2679 -7426.9998 294.9591 -9162.2677 -7481.7251 299.3102 -650.8264 -610.2370 31150.3016 -59.4936 -0.8623
ENERGY: 1200000 0.6249 11.0634 7.7746 0.0000 -10740.3912 1448.7017 0.0000 0.0000 1794.7123 -7477.5143 305.0634 -9272.2266 -7485.5144 299.5491 53.6077 154.7827 30326.1529 -96.7181 -38.8864
ENERGY: 1500000 2.4247 7.7385 6.7804 0.0000 -10773.0539 1503.1305 0.0000 0.0000 1759.0829 -7493.8971 299.0072 -9252.9799 -7491.0565 299.4137 503.9039 456.5656 30910.0491 -25.4294 24.7701
TCL: Running FEP window  12: Lambda1 0.5499999999999999 Lambda2 0.6    [dLambda 0.050000000000000044]
TCL: Setting parameter firsttimestep to 0
TCL: Setting parameter alchLambda to 0.5499999999999999
Info: NONBONDED TABLE R-SQUARED SPACING: 0.0625
Info: NONBONDED TABLE SIZE: 705 POINTS
TCL: Setting parameter alchLambda2 to 0.6
Info: NONBONDED TABLE R-SQUARED SPACING: 0.0625
Info: NONBONDED TABLE SIZE: 705 POINTS
TCL: Running for 1500000 steps
ETITLE: TS BOND ANGLE DIHED IMPRP ELECT VDW BOUNDARY MISC KINETIC TOTAL TEMP POTENTIAL TOTALAVG TEMPAVG PRESSURE GPRESSURE VOLUME PRESSAVG GPRESSAVG
ENERGY: 0 2.4247 7.7385 6.7804 0.0000 -10773.1942 1502.9888 0.0000 0.0000 1758.2031 -7495.0589 298.8576 -9253.2620 -7495.0589 298.8576 396.2773 459.7725 30910.0491 396.2773 459.7725
ENERGY: 300000 1.4603 11.4561 8.0689 0.0000 -10828.4073 1483.6914 0.0000 0.0000 1781.4594 -7542.2711 302.8107 -9323.7306 -7520.5832 300.0522 117.5854 181.6109 30499.9139 -77.7486 -28.2211
ENERGY: 600000 1.1426 9.3940 4.9787 0.0000 -10896.7475 1542.3611 0.0000 0.0000 1698.6351 -7640.2360 288.7323 -9338.8711 -7529.4295 296.4021 647.8812 776.6740 30109.6717 -21.8585 33.4006
ENERGY: 900000 3.1721 10.5409 6.2786 0.0000 -10624.6523 1353.1250 0.0000 0.0000 1743.0959 -7508.4398 296.2897 -9251.5357 -7517.4548 298.8823 -918.2111 -854.2629 31009.7780 -56.0678 -0.8745
ENERGY: 1200000 1.5845 10.0216 6.5966 0.0000 -10761.8732 1529.4769 0.0000 0.0000 1797.8868 -7416.3067 305.6030 -9214.1936 -7507.8031 299.6468 1139.8447 1166.8540 30281.5226 -5.2502 54.0565
ENERGY: 1500000 0.5792 9.3097 6.5358 0.0000 -10822.5156 1479.1134 0.0000 0.0000 1738.9624 -7588.0152 295.5871 -9326.9776 -7509.5821 299.5759 402.8818 395.0924 30079.2941 -4.9512 52.2389
TCL: Running FEP window  13: Lambda1 0.6    Lambda2 0.65   [dLambda 0.050000000000000044]
TCL: Setting parameter firsttimestep to 0
TCL: Setting parameter alchLambda to 0.6
Info: NONBONDED TABLE R-SQUARED SPACING: 0.0625
Info: NONBONDED TABLE SIZE: 705 POINTS
TCL: Setting parameter alchLambda2 to 0.65
Info: NONBONDED TABLE R-SQUARED SPACING: 0.0625
Info: NONBONDED TABLE SIZE: 705 POINTS
TCL: Running for 1500000 steps
ETITLE: TS BOND ANGLE DIHED IMPRP ELECT VDW BOUNDARY MISC KINETIC TOTAL TEMP POTENTIAL TOTALAVG TEMPAVG PRESSURE GPRESSURE VOLUME PRESSAVG GPRESSAVG
ENERGY: 0 0.5792 9.3097 6.5358 0.0000 -10822.7926 1478.9949 0.0000 0.0000 1738.1122 -7589.2608 295.4426 -9327.3730 -7589.2608 295.4426 304.5800 400.4099 30079.2941 304.5800 400.4099
ENERGY: 300000 2.1262 8.1245 7.0981 0.0000 -10870.0793 1599.2478 0.0000 0.0000 1783.0433 -7470.4393 303.0799 -9253.4826 -7509.8433 303.4618 1530.3464 1564.3018 30205.1898 820.7880 895.2712
ENERGY: 600000 2.1346 10.1808 7.3780 0.0000 -10636.8203 1400.1606 0.0000 0.0000 1735.8982 -7481.0681 295.0663 -9216.9663 -7512.4593 301.1771 -452.6222 -301.2273 30832.8222 230.2139 327.9378
ENERGY: 900000 1.7868 7.6114 7.5356 0.0000 -10650.1142 1412.3547 0.0000 0.0000 1766.8816 -7453.9440 300.3328 -9220.8257 -7517.9596 299.6742 3.1115 69.5173 30421.2888 177.7631 259.3664
ENERGY: 1200000 2.2453 6.3704 6.0900 0.0000 -10851.7041 1514.3164 0.0000 0.0000 1757.6842 -7564.9978 298.7694 -9322.6820 -7527.3089 299.0969 339.7944 382.6662 30534.4819 176.1271 255.4422
ENERGY: 1500000 2.0240 9.1130 5.9709 0.0000 -10570.0826 1298.8637 0.0000 0.0000 1781.9825 -7472.1285 302.8996 -9254.1110 -7526.2069 298.9157 -1137.0434 -1031.2303 30775.3605 144.7733 226.0578
TCL: Running FEP window  14: Lambda1 0.65   Lambda2 0.7000000000000001 [dLambda 0.050000000000000044]
TCL: Setting parameter firsttimestep to 0
TCL: Setting parameter alchLambda to 0.65
Info: NONBONDED TABLE R-SQUARED SPACING: 0.0625
Info: NONBONDED TABLE SIZE: 705 POINTS
TCL: Setting parameter alchLambda2 to 0.7000000000000001
Info: NONBONDED TABLE R-SQUARED SPACING: 0.0625
Info: NONBONDED TABLE SIZE: 705 POINTS
TCL: Running for 1500000 steps
ETITLE: TS BOND ANGLE DIHED IMPRP ELECT VDW BOUNDARY MISC KINETIC TOTAL TEMP POTENTIAL TOTALAVG TEMPAVG PRESSURE GPRESSURE VOLUME PRESSAVG GPRESSAVG
ENERGY: 0 2.0240 9.1130 5.9709 0.0000 -10570.2746 1298.9977 0.0000 0.0000 1781.1027 -7473.0663 302.7501 -9254.1690 -7473.0663 302.7501 -1101.4050 -1019.1868 30775.3605 -1101.4050 -1019.1868
ENERGY: 300000 3.8665 12.4281 5.4548 0.0000 -10745.5195 1390.0049 0.0000 0.0000 1755.1583 -7578.6068 298.3401 -9333.7652 -7533.9904 300.0874 -590.1363 -586.4386 30757.1098 -336.3797 -303.2815
ENERGY: 600000 0.6709 7.9699 7.8961 0.0000 -10830.9179 1512.7601 0.0000 0.0000 1780.4543 -7521.1667 302.6399 -9301.6210 -7526.1927 300.8061 863.5060 862.0685 29966.9935 -133.9185 -86.6212
ENERGY: 900000 3.3911 8.4023 5.6534 0.0000 -10645.2462 1384.1686 0.0000 0.0000 1726.6587 -7516.9722 293.4958 -9243.6309 -7518.7602 299.2374 -412.3267 -348.7203 30570.5151 -121.4071 -70.7803
ENERGY: 1200000 2.0819 9.9847 6.7951 0.0000 -10678.8713 1347.3005 0.0000 0.0000 1758.0507 -7554.6583 298.8317 -9312.7090 -7526.2303 299.0769 -781.4073 -672.3141 30440.8947 -201.5246 -137.7236
ENERGY: 1500000 2.6656 9.6446 9.5135 0.0000 -10713.1514 1421.3634 0.0000 0.0000 1806.7448 -7463.2195 307.1087 -9269.9643 -7526.2997 298.4786 -163.4070 -97.7581 30357.6855 -217.2123 -157.6930
TCL: Running FEP window  15: Lambda1 0.7000000000000001 Lambda2 0.7500000000000001 [dLambda 0.050000000000000044]
TCL: Setting parameter firsttimestep to 0
TCL: Setting parameter alchLambda to 0.7000000000000001
Info: NONBONDED TABLE R-SQUARED SPACING: 0.0625
Info: NONBONDED TABLE SIZE: 705 POINTS
TCL: Setting parameter alchLambda2 to 0.7500000000000001
Info: NONBONDED TABLE R-SQUARED SPACING: 0.0625
Info: NONBONDED TABLE SIZE: 705 POINTS
TCL: Running for 1500000 steps
ETITLE: TS BOND ANGLE DIHED IMPRP ELECT VDW BOUNDARY MISC KINETIC TOTAL TEMP POTENTIAL TOTALAVG TEMPAVG PRESSURE GPRESSURE VOLUME PRESSAVG GPRESSAVG
ENERGY: 0 2.6656 9.6446 9.5135 0.0000 -10714.3137 1421.7224 0.0000 0.0000 1805.8402 -7464.9274 306.9549 -9270.7676 -7464.9274 306.9549 -163.3566 -86.8904 30357.6855 -163.3566 -86.8904
ENERGY: 300000 3.1240 5.8264 7.7039 0.0000 -10813.7696 1433.8122 0.0000 0.0000 1760.4349 -7602.8683 299.2370 -9363.3033 -7528.6562 303.5210 -86.1708 -52.6051 30126.1325 -379.5216 -325.4313
ENERGY: 600000 1.0780 5.1002 6.6049 0.0000 -10784.8658 1460.9025 0.0000 0.0000 1745.2655 -7565.9147 296.6585 -9311.1802 -7522.5725 301.8659 -152.2947 -92.5988 30879.5734 -339.5521 -287.8345
ENERGY: 900000 1.1542 7.7836 7.6465 0.0000 -10758.6122 1443.2355 0.0000 0.0000 1819.1449 -7479.6476 309.2165 -9298.7925 -7522.7970 301.9201 -43.0540 11.0614 30713.4645 -217.3753 -171.6631
ENERGY: 1200000 0.7948 9.2632 5.6082 0.0000 -10811.1138 1482.1382 0.0000 0.0000 1771.2006 -7542.1088 301.0669 -9313.3094 -7518.3102 301.7254 373.3869 505.0632 30228.5158 -133.0005 -79.5636
ENERGY: 1500000 1.2891 7.6309 7.0277 0.0000 -10834.4880 1400.1716 0.0000 0.0000 1725.3652 -7693.0034 293.2759 -9418.3687 -7532.0513 300.7773 -971.7497 -867.2011 30737.5955 -211.8498 -153.5410
TCL: Running FEP window  16: Lambda1 0.7500000000000001 Lambda2 0.8000000000000002 [dLambda 0.050000000000000044]
TCL: Setting parameter firsttimestep to 0
TCL: Setting parameter alchLambda to 0.7500000000000001
Info: NONBONDED TABLE R-SQUARED SPACING: 0.0625
Info: NONBONDED TABLE SIZE: 705 POINTS
TCL: Setting parameter alchLambda2 to 0.8000000000000002
Info: NONBONDED TABLE R-SQUARED SPACING: 0.0625
Info: NONBONDED TABLE SIZE: 705 POINTS
TCL: Running for 1500000 steps
ETITLE: TS BOND ANGLE DIHED IMPRP ELECT VDW BOUNDARY MISC KINETIC TOTAL TEMP POTENTIAL TOTALAVG TEMPAVG PRESSURE GPRESSURE VOLUME PRESSAVG GPRESSAVG
ENERGY: 0 1.2891 7.6309 7.0277 0.0000 -10835.4350 1399.7478 0.0000 0.0000 1724.4534 -7695.2861 293.1209 -9419.7395 -7695.2861 293.1209 -953.0492 -867.6322 30737.5955 -953.0492 -867.6322
ENERGY: 300000 1.8724 4.1966 5.8329 0.0000 -10703.9616 1421.2863 0.0000 0.0000 1727.6738 -7543.0997 293.6683 -9270.7734 -7569.0009 296.9235 -414.5836 -348.7075 30648.2359 -348.6672 -277.8743
ENERGY: 600000 4.4868 8.1046 6.6946 0.0000 -10667.5959 1349.1108 0.0000 0.0000 1753.9363 -7545.2629 298.1324 -9299.1991 -7559.8706 297.7312 -1017.7683 -951.2833 30700.5286 -447.7014 -377.5883
ENERGY: 900000 4.5899 11.6192 6.8166 0.0000 -10705.6350 1372.9233 0.0000 0.0000 1734.2996 -7575.3864 294.7945 -9309.6860 -7554.5595 298.6464 -829.1504 -763.8552 30643.2096 -484.8249 -411.8583
ENERGY: 1200000 2.1270 7.9915 6.4522 0.0000 -10653.7580 1438.0698 0.0000 0.0000 1776.0116 -7423.1059 301.8847 -9199.1176 -7531.0457 299.6767 -11.1893 100.2229 30772.1934 -364.6920 -289.9332
ENERGY: 1500000 1.5018 6.5625 7.0541 0.0000 -10805.3410 1495.5632 0.0000 0.0000 1818.9798 -7475.6797 309.1884 -9294.6594 -7525.3388 300.4893 555.0169 574.8389 30247.0938 -350.0177 -281.6888
TCL: Running FEP window  17: Lambda1 0.8000000000000002 Lambda2 0.8500000000000002 [dLambda 0.050000000000000044]
TCL: Setting parameter firsttimestep to 0
TCL: Setting parameter alchLambda to 0.8000000000000002
Info: NONBONDED TABLE R-SQUARED SPACING: 0.0625
Info: NONBONDED TABLE SIZE: 705 POINTS
TCL: Setting parameter alchLambda2 to 0.8500000000000002
Info: NONBONDED TABLE R-SQUARED SPACING: 0.0625
Info: NONBONDED TABLE SIZE: 705 POINTS
TCL: Running for 1500000 steps
ETITLE: TS BOND ANGLE DIHED IMPRP ELECT VDW BOUNDARY MISC KINETIC TOTAL TEMP POTENTIAL TOTALAVG TEMPAVG PRESSURE GPRESSURE VOLUME PRESSAVG GPRESSAVG
ENERGY: 0 1.5018 6.5625 7.0541 0.0000 -10806.8048 1495.7613 0.0000 0.0000 1818.1097 -7477.8154 309.0405 -9295.9251 -7477.8154 309.0405 491.2608 579.9012 30247.0938 491.2608 579.9012
ENERGY: 300000 2.3261 11.5808 5.5445 0.0000 -10565.2584 1371.8797 0.0000 0.0000 1765.6521 -7408.2752 300.1238 -9173.9274 -7495.0786 299.6086 -585.7574 -504.2671 31281.5536 136.5877 194.9516
ENERGY: 600000 0.8015 5.7889 7.1738 0.0000 -10677.7663 1391.4229 0.0000 0.0000 1736.3238 -7536.2555 295.1386 -9272.5792 -7505.0085 297.7913 -393.5471 -307.4736 30306.6342 161.9939 214.5475
ENERGY: 900000 2.4178 10.2546 7.8337 0.0000 -10692.5180 1389.4418 0.0000 0.0000 1683.2150 -7599.3551 286.1112 -9282.5701 -7514.7461 298.0076 -656.2681 -609.8942 30752.1332 25.0359 84.1875
ENERGY: 1200000 1.7377 10.1748 8.6885 0.0000 -10720.6634 1394.4193 0.0000 0.0000 1784.4278 -7521.2153 303.3153 -9305.6432 -7523.1345 298.0456 -704.3458 -612.0731 30922.3506 -49.7451 19.3727
ENERGY: 1500000 0.5352 7.7824 5.9757 0.0000 -10726.6832 1427.5553 0.0000 0.0000 1791.7993 -7493.0353 304.5683 -9284.8346 -7532.2561 298.4837 -11.4993 100.5430 30142.1086 -126.4003 -57.3932
TCL: Running FEP window  18: Lambda1 0.8500000000000002 Lambda2 0.9000000000000002 [dLambda 0.050000000000000044]
TCL: Setting parameter firsttimestep to 0
TCL: Setting parameter alchLambda to 0.8500000000000002
Info: NONBONDED TABLE R-SQUARED SPACING: 0.0625
Info: NONBONDED TABLE SIZE: 705 POINTS
TCL: Setting parameter alchLambda2 to 0.9000000000000002
Info: NONBONDED TABLE R-SQUARED SPACING: 0.0625
Info: NONBONDED TABLE SIZE: 705 POINTS
TCL: Running for 1500000 steps
ETITLE: TS BOND ANGLE DIHED IMPRP ELECT VDW BOUNDARY MISC KINETIC TOTAL TEMP POTENTIAL TOTALAVG TEMPAVG PRESSURE GPRESSURE VOLUME PRESSAVG GPRESSAVG
ENERGY: 0 0.5352 7.7824 5.9757 0.0000 -10727.9679 1427.9482 0.0000 0.0000 1790.9151 -7494.8113 304.4180 -9285.7264 -7494.8113 304.4180 40.3361 111.8921 30142.1086 40.3361 111.8921
ENERGY: 300000 1.8326 7.1936 6.9991 0.0000 -10684.3126 1396.1751 0.0000 0.0000 1715.4127 -7556.6996 291.5842 -9272.1123 -7545.6482 300.2564 -359.8574 -274.8127 30598.1843 -363.1159 -291.7665
ENERGY: 600000 2.2491 7.0690 6.5823 0.0000 -10570.6801 1365.6220 0.0000 0.0000 1787.9448 -7401.2130 303.9131 -9189.1578 -7487.3224 300.5876 -583.7571 -439.0815 31075.0916 -272.8771 -195.5078
ENERGY: 900000 1.1537 4.9736 7.6742 0.0000 -10623.4337 1340.8705 0.0000 0.0000 1751.8299 -7516.9319 297.7743 -9268.7617 -7512.7887 298.8801 -723.0479 -651.9674 30561.0447 -455.6180 -381.0294
ENERGY: 1200000 2.2762 7.2979 6.6427 0.0000 -10765.0397 1443.2119 0.0000 0.0000 1747.0231 -7558.5879 296.9573 -9305.6110 -7517.4963 299.2463 42.2190 39.3047 30411.8293 -367.9098 -298.9903
ENERGY: 1500000 3.0450 7.4142 5.5809 0.0000 -10861.6259 1476.2676 0.0000 0.0000 1831.6526 -7537.6657 311.3425 -9369.3183 -7521.1341 300.4335 -148.6403 -82.3376 30560.8114 -274.6535 -210.2333
TCL: Running FEP window  19: Lambda1 0.9000000000000002 Lambda2 0.9500000000000003 [dLambda 0.050000000000000044]
TCL: Setting parameter firsttimestep to 0
TCL: Setting parameter alchLambda to 0.9000000000000002
Info: NONBONDED TABLE R-SQUARED SPACING: 0.0625
Info: NONBONDED TABLE SIZE: 705 POINTS
TCL: Setting parameter alchLambda2 to 0.9500000000000003
Info: NONBONDED TABLE R-SQUARED SPACING: 0.0625
Info: NONBONDED TABLE SIZE: 705 POINTS
TCL: Running for 1500000 steps
ETITLE: TS BOND ANGLE DIHED IMPRP ELECT VDW BOUNDARY MISC KINETIC TOTAL TEMP POTENTIAL TOTALAVG TEMPAVG PRESSURE GPRESSURE VOLUME PRESSAVG GPRESSAVG
ENERGY: 0 3.0450 7.4142 5.5809 0.0000 -10863.3917 1477.0497 0.0000 0.0000 1830.7277 -7539.5743 311.1853 -9370.3020 -7539.5743 311.1853 -147.9855 -70.5550 30560.8114 -147.9855 -70.5550
ENERGY: 300000 5.4958 6.1648 6.3806 0.0000 -10732.0291 1496.2220 0.0000 0.0000 1727.5266 -7490.2393 293.6433 -9217.7658 -7471.0800 305.0787 453.9387 533.4132 30709.3454 154.3546 237.5533
ENERGY: 600000 1.1254 9.6250 6.9981 0.0000 -10627.0428 1310.7257 0.0000 0.0000 1768.7806 -7529.7880 300.6556 -9298.5686 -7489.4907 304.1216 -1018.9826 -982.1923 30581.5570 58.9817 129.7117
ENERGY: 900000 1.0434 10.5560 5.7565 0.0000 -10743.6436 1397.0277 0.0000 0.0000 1819.8820 -7509.3779 309.3418 -9329.2599 -7494.4082 304.8000 -572.7705 -478.7743 30540.3144 80.5483 150.7277
ENERGY: 1200000 3.8422 5.5283 7.8414 0.0000 -10655.2112 1358.0127 0.0000 0.0000 1783.8586 -7496.1280 303.2185 -9279.9865 -7501.5534 303.5517 -742.3787 -689.8456 30559.2439 -26.6261 34.2740
ENERGY: 1500000 2.5711 8.6142 1.8271 0.0000 -10562.7158 1296.7195 0.0000 0.0000 1704.0663 -7548.9177 289.6555 -9252.9839 -7515.3780 302.2543 -1224.1405 -1113.5660 30458.5166 -88.5743 -23.4970
TCL: Running FEP window  20: Lambda1 0.9500000000000003 Lambda2 1.0    [dLambda 0.04999999999999971]
TCL: Setting parameter firsttimestep to 0
TCL: Setting parameter alchLambda to 0.9500000000000003
Info: NONBONDED TABLE R-SQUARED SPACING: 0.0625
Info: NONBONDED TABLE SIZE: 705 POINTS
TCL: Setting parameter alchLambda2 to 1.0
Info: NONBONDED TABLE R-SQUARED SPACING: 0.0625
Info: NONBONDED TABLE SIZE: 705 POINTS
TCL: Running for 1500000 steps
ETITLE: TS BOND ANGLE DIHED IMPRP ELECT VDW BOUNDARY MISC KINETIC TOTAL TEMP POTENTIAL TOTALAVG TEMPAVG PRESSURE GPRESSURE VOLUME PRESSAVG GPRESSAVG
ENERGY: 0 2.5711 8.6142 1.8271 0.0000 -10565.9879 1299.7683 0.0000 0.0000 1703.1469 -7550.0602 289.4992 -9253.2072 -7550.0602 289.4992 -1154.2420 -1074.7197 30458.5166 -1154.2420 -1074.7197
ENERGY: 300000 3.2580 7.0413 2.1398 0.0000 -10754.1620 1423.9924 0.0000 0.0000 1764.1079 -7553.6226 299.8613 -9317.7305 -7523.7164 299.1189 -246.9836 -180.7536 30654.6186 -84.8253 -18.5261
ENERGY: 600000 4.2464 5.5788 3.4509 0.0000 -10865.5188 1481.2371 0.0000 0.0000 1788.4098 -7582.5960 303.9921 -9371.0058 -7513.6903 300.5457 280.4336 309.9543 30173.2983 -163.8235 -101.1333
ENERGY: 900000 1.3598 6.8013 1.7504 0.0000 -10869.6725 1496.4535 0.0000 0.0000 1767.4772 -7595.8304 300.4340 -9363.3076 -7524.5918 301.6167 310.2956 371.0786 30258.3093 -35.0601 31.7925
ENERGY: 1200000 3.0628 8.5763 2.0306 0.0000 -10867.5041 1528.4319 0.0000 0.0000 1750.6904 -7574.7120 297.5806 -9325.4025 -7528.1273 301.4789 592.8027 621.2657 30158.2111 -5.1269 56.2260
ENERGY: 1500000 0.9664 8.5709 2.2699 0.0000 -10635.8320 1336.9248 0.0000 0.0000 1817.5236 -7469.5764 308.9409 -9287.0999 -7526.0592 301.3287 -659.7499 -590.9027 30316.2202 -90.3870 -26.0422
TCL: Exiting due to exit command.
