Info: SIMULATION PARAMETERS:
Info: TIMESTEP               2
Info: NUMBER OF STEPS        0
Info: STEPS PER CYCLE        10
Info: PERIODIC CELL BASIS 1  31.7684 0 0
Info: PERIODIC CELL BASIS 2  0 29.5952 0
Info: PERIODIC CELL BASIS 3  0 0 31.9395
Info: PERIODIC CELL CENTER   0 0 0
Info: WRAPPING WATERS AROUND PERIODIC BOUNDARIES ON OUTPUT.
Info: WRAPPING ALL CLUSTERS AROUND PERIODIC BOUNDARIES ON OUTPUT.
Info: FIRST LDB TIMESTEP     50
Info: LAST LDB TIMESTEP     -1
Info: HOM BACKGROUND SCALING 1
Info: PME BACKGROUND SCALING 1
Info: MIN ATOMS PER PATCH    40
Info: EMPTY PATCH LOAD       40 ATOMS
Info: VELOCITY FILE          mobley_5917842_equil.vel
Info: CENTER OF MASS MOVING INITIALLY? NO
Info: DIELECTRIC             1
Info: EXCLUDE                SCALED ONE-FOUR
Info: 1-4 ELECTROSTATICS SCALED BY 0.833333
Info: MODIFIED 1-4 VDW PARAMETERS WILL BE USED
Info: DCD FILENAME           mobley_5917842_prod.dcd
Info: DCD FREQUENCY          100000
Info: DCD FIRST STEP         100000
Info: DCD FILE WILL CONTAIN UNIT CELL DATA
Info: XST FILENAME           mobley_5917842_prod.xst
Info: XST FREQUENCY          100000
Info: NO VELOCITY DCD OUTPUT
Info: NO FORCE DCD OUTPUT
Info: OUTPUT FILENAME        mobley_5917842_prod
Info: BINARY OUTPUT FILES WILL BE USED
Info: RESTART FILENAME       mobley_5917842_prod.restart
Info: RESTART FREQUENCY      100000
Info: BINARY RESTART FILES WILL BE USED
Info: CUTOFF                 9
Info: PAIRLIST DISTANCE      11
Info: PAIRLIST SHRINK RATE   0.01
Info: PAIRLIST GROW RATE     0.01
Info: PAIRLIST TRIGGER       0.3
Info: PAIRLISTS PER CYCLE    2
Info: PAIRLISTS ENABLED
Info: MARGIN                 2
Info: HYDROGEN GROUP CUTOFF  2.5
Info: PATCH DIMENSION        15.5
Info: ENERGY OUTPUT STEPS    100000
Info: ENERGY EVALUATION STEPS    100000
Info: OUTPUT ENERGY PRECISION 4
Info: CROSSTERM ENERGY INCLUDED IN DIHEDRAL
Info: TIMING OUTPUT STEPS    1000000
Info: PRESSURE OUTPUT STEPS  100000
Info: ALCHEMICAL FEP ON
Info: FEP CURRENT LAMBDA VALUE     1
Info: FEP COMPARISON LAMBDA VALUE  0.95
Info: FEP INTRA-ALCHEMICAL NON-BONDED INTERACTIONS WILL BE RETAINED
Info: FEP INTRA-ALCHEMICAL BONDED INTERACTIONS WILL BE RETAINED
Info: FEP VDW SHIFTING COEFFICIENT 5
Info: FEP ELEC. ACTIVE FOR ANNIHILATED PARTICLES BETWEEN LAMBDA = 0 AND LAMBDA = 0.5
Info: FEP ELEC. ACTIVE FOR EXNIHILATED PARTICLES BETWEEN LAMBDA = 0.5 AND LAMBDA = 1
Info: FEP VDW ACTIVE FOR ANNIHILATED PARTICLES BETWEEN LAMBDA = 0 AND LAMBDA = 1
Info: FEP VDW ACTIVE FOR EXNIHILATED PARTICLES BETWEEN LAMBDA = 0 AND LAMBDA = 1
Info: FEP BOND ACTIVE FOR ANNIHILATED PARTICLES BETWEEN LAMBDA = 1 AND LAMBDA = 1
Info: FEP BOND ACTIVE FOR EXNIHILATED PARTICLES BETWEEN LAMBDA = 0 AND LAMBDA = 0
Info: LANGEVIN DYNAMICS ACTIVE
Info: LANGEVIN TEMPERATURE   300
Info: LANGEVIN USING BBK INTEGRATOR
Info: LANGEVIN DAMPING COEFFICIENT IS 1 INVERSE PS
Info: LANGEVIN DYNAMICS APPLIED TO HYDROGENS
Info: LANGEVIN PISTON PRESSURE CONTROL ACTIVE
Info:        TARGET PRESSURE IS 1.01325 BAR
Info:     OSCILLATION PERIOD IS 50 FS
Info:             DECAY TIME IS 25 FS
Info:     PISTON TEMPERATURE IS 300 K
Info:       PRESSURE CONTROL IS GROUP-BASED
Info:    INITIAL STRAIN RATE IS -0.000154785 -0.000154785 -0.000154785
Info:       CELL FLUCTUATION IS ISOTROPIC
Info: PARTICLE MESH EWALD (PME) ACTIVE
Info: PME TOLERANCE               1e-06
Info: PME EWALD COEFFICIENT       0.348832
Info: PME INTERPOLATION ORDER     4
Info: PME GRID DIMENSIONS         32 32 32
Info: PME MAXIMUM GRID SPACING    1
Info: PME CALCULATION WILL BE PERFORMED ON GPU
Info: FULL ELECTROSTATIC EVALUATION FREQUENCY      2
Info: USING VERLET I (r-RESPA) MTS SCHEME.
Info: C1 SPLITTING OF LONG RANGE ELECTROSTATICS
Info: PLACING ATOMS IN PATCHES BY HYDROGEN GROUPS
Info: RIGID BONDS TO HYDROGEN : ALL
Info:         ERROR TOLERANCE : 1e-08
Info:          MAX ITERATIONS : 100
Info: RIGID WATER USING SETTLE ALGORITHM
Info: RANDOM NUMBER SEED     1743786631
Info: USE HYDROGEN BONDS?    NO
Info: Using AMBER format force field!
Info: AMBER PARM FILE        mobley_5917842.prmtop
Info: COORDINATE PDB         mobley_5917842.pdb
Info: Exclusions will be read from PARM file!
Info: SCNB (VDW SCALING)     2
Info: USING ARITHMETIC MEAN TO COMBINE L-J SIGMA PARAMETERS
Info: BINARY COORDINATES     mobley_5917842_equil.coor
Info: SUMMARY OF PARAMETERS:
Info: 11 BONDS
Info: 11 ANGLES
Info:   11 HARMONIC
Info:   0 COSINE-BASED
Info: 5 DIHEDRAL
Info: 0 IMPROPER
Info: 0 CROSSTERM
Info: 0 VDW
Info: 45 VDW_PAIRS
Info: 0 NBTHOLE_PAIRS
Info: To read alchdata from file: mobley_5917842.pdb
Info: To read alchflag data from column: 5
Info: STRUCTURE SUMMARY:
Info: 2936 ATOMS
Info: 2936 BONDS
Info: 32 ANGLES
Info: 43 DIHEDRALS
Info: 0 IMPROPERS
Info: 0 CROSSTERMS
Info: 3002 EXCLUSIONS
Info: 2926 RIGID BONDS
Info: ALCH: 0 ATOMS TO DISAPPEAR IN FINAL STATE
Info: ALCH: 20 ATOMS TO APPEAR IN FINAL STATE
Info: 5882 DEGREES OF FREEDOM
Info: 982 HYDROGEN GROUPS
Info: 4 ATOMS IN LARGEST HYDROGEN GROUP
Info: 982 MIGRATION GROUPS
Info: 4 ATOMS IN LARGEST MIGRATION GROUP
Info: TOTAL MASS = 17649.7 amu
Info: TOTAL CHARGE = -1.49012e-08 e
Info: MASS DENSITY = 0.976005 g/cm^3
Info: ATOM DENSITY = 0.0977713 atoms/A^3
Info: ADDED 0 IMPLICIT EXCLUSIONS
Info: NONBONDED TABLE R-SQUARED SPACING: 0.0625
Info: NONBONDED TABLE SIZE: 705 POINTS
Info: REMOVING COM VELOCITY -0.252744 -0.0921659 -0.139335
Info: Use 3D box decompostion in PME FFT.
Info: Updated CUDA force table with 4096 elements.
Info: Updated CUDA LJ table with 9 x 9 elements.
Info: Found 22 unique exclusion lists needing 60 bytes
TCL: Running for 1500000 steps
ETITLE: TS BOND ANGLE DIHED IMPRP ELECT VDW BOUNDARY MISC KINETIC TOTAL TEMP POTENTIAL TOTALAVG TEMPAVG PRESSURE GPRESSURE VOLUME PRESSAVG GPRESSAVG
ENERGY: 0 3.6284 4.0448 2.7164 0.0000 -10719.4456 1485.7900 0.0000 0.0000 1814.8603 -7408.4056 310.5336 -9223.2659 -7408.4056 310.5336 487.7377 562.3224 30029.2767 487.7377 562.3224
ENERGY: 300000 2.5637 6.2454 5.0014 0.0000 -10715.2831 1470.3515 0.0000 0.0000 1717.6705 -7513.4507 293.9038 -9231.1212 -7442.3046 301.0684 -3.3814 130.7374 30502.6558 428.2335 526.1882
ENERGY: 600000 3.6754 9.5092 7.2248 0.0000 -10568.7304 1389.9592 0.0000 0.0000 1793.3593 -7365.0025 306.8546 -9158.3618 -7426.2632 302.2879 -277.3391 -162.0315 30397.3152 189.6909 273.6902
ENERGY: 900000 2.2643 5.3763 2.7019 0.0000 -10701.2991 1462.5153 0.0000 0.0000 1764.5362 -7463.9050 301.9228 -9228.4413 -7439.8169 301.9939 273.9942 298.6785 30250.4783 168.6979 241.5881
ENERGY: 1200000 3.5444 8.0034 4.4506 0.0000 -10424.7995 1293.9394 0.0000 0.0000 1745.9921 -7368.8696 298.7498 -9114.8617 -7431.2090 301.5498 -954.8597 -896.2674 30650.0705 -33.5615 38.0646
ENERGY: 1500000 1.3470 6.9714 4.3777 0.0000 -10568.5096 1401.1639 0.0000 0.0000 1772.2173 -7382.4322 303.2371 -9154.6495 -7424.8849 301.6999 258.9370 292.1362 30098.9133 27.0571 95.7655
TCL: Running FEP window   2: Lambda1 0.95   Lambda2 0.8999999999999999 [dLambda -0.050000000000000044]
TCL: Setting parameter firsttimestep to 0
TCL: Setting parameter alchLambda to 0.95
Info: NONBONDED TABLE R-SQUARED SPACING: 0.0625
Info: NONBONDED TABLE SIZE: 705 POINTS
TCL: Setting parameter alchLambda2 to 0.8999999999999999
Info: NONBONDED TABLE R-SQUARED SPACING: 0.0625
Info: NONBONDED TABLE SIZE: 705 POINTS
TCL: Running for 1500000 steps
ETITLE: TS BOND ANGLE DIHED IMPRP ELECT VDW BOUNDARY MISC KINETIC TOTAL TEMP POTENTIAL TOTALAVG TEMPAVG PRESSURE GPRESSURE VOLUME PRESSAVG GPRESSAVG
ENERGY: 0 1.3470 6.9714 4.3777 0.0000 -10567.1132 1399.7883 0.0000 0.0000 1771.3450 -7383.2838 303.0878 -9154.6288 -7383.2838 303.0878 193.3172 262.4012 30098.9133 193.3172 262.4012
ENERGY: 300000 4.5586 5.7567 5.1662 0.0000 -10680.5372 1412.2368 0.0000 0.0000 1791.6541 -7461.1647 306.5629 -9252.8189 -7430.9578 304.9120 -326.7862 -336.8701 30285.0679 -1.8961 43.0204
ENERGY: 600000 2.0272 9.0527 4.9644 0.0000 -10519.5775 1391.7087 0.0000 0.0000 1716.6325 -7395.1920 293.7262 -9111.8245 -7417.0205 301.1121 -7.9673 -36.4780 30397.1422 -58.4253 -3.4459
ENERGY: 900000 1.0982 3.6947 6.4792 0.0000 -10553.5206 1387.9781 0.0000 0.0000 1755.2380 -7399.0324 300.3318 -9154.2704 -7419.5195 301.4800 -185.3939 -49.0388 30158.2544 13.3541 68.7445
ENERGY: 1200000 2.5626 5.0440 4.9726 0.0000 -10540.8557 1359.3121 0.0000 0.0000 1776.7964 -7392.1680 304.0206 -9168.9644 -7417.9403 301.0167 -378.8212 -318.2313 30024.1702 -122.2741 -63.2948
ENERGY: 1500000 2.4027 4.8676 2.3493 0.0000 -10646.3088 1464.5193 0.0000 0.0000 1766.2375 -7405.9323 302.2139 -9172.1698 -7415.2142 301.7523 401.9220 417.2248 30539.1656 -54.2040 0.8116
TCL: Running FEP window   3: Lambda1 0.8999999999999999 Lambda2 0.8499999999999999 [dLambda -0.050000000000000044]
TCL: Setting parameter firsttimestep to 0
TCL: Setting parameter alchLambda to 0.8999999999999999
Info: NONBONDED TABLE R-SQUARED SPACING: 0.0625
Info: NONBONDED TABLE SIZE: 705 POINTS
TCL: Setting parameter alchLambda2 to 0.8499999999999999
Info: NONBONDED TABLE R-SQUARED SPACING: 0.0625
Info: NONBONDED TABLE SIZE: 705 POINTS
TCL: Running for 1500000 steps
ETITLE: TS BOND ANGLE DIHED IMPRP ELECT VDW BOUNDARY MISC KINETIC TOTAL TEMP POTENTIAL TOTALAVG TEMPAVG PRESSURE GPRESSURE VOLUME PRESSAVG GPRESSAVG
ENERGY: 0 2.4027 4.8676 2.3493 0.0000 -10644.5627 1464.6499 0.0000 0.0000 1765.3725 -7404.9208 302.0659 -9170.2932 -7404.9208 302.0659 344.0394 410.7589 30539.1656 344.0394 410.7589
ENERGY: 300000 2.4352 6.3450 2.9883 0.0000 -10476.8090 1350.4654 0.0000 0.0000 1750.2515 -7364.3235 299.4786 -9114.5750 -7395.9010 300.6667 -498.7885 -425.4232 30327.4333 -145.9769 -75.1414
ENERGY: 600000 5.2398 5.0987 2.2645 0.0000 -10623.4641 1482.6393 0.0000 0.0000 1696.7471 -7431.4746 290.3237 -9128.2217 -7389.7716 300.4406 150.3055 224.0748 30808.0774 -330.1173 -265.7760
ENERGY: 900000 1.4124 11.8028 6.6484 0.0000 -10574.9489 1408.0939 0.0000 0.0000 1716.3742 -7430.6172 293.6820 -9146.9914 -7395.0525 300.0910 -313.0137 -113.3521 30339.9824 -281.6419 -206.5367
ENERGY: 1200000 4.4600 9.7241 2.7231 0.0000 -10744.6448 1471.4045 0.0000 0.0000 1687.6587 -7568.6745 288.7686 -9256.3332 -7418.4860 299.7550 -28.7034 37.0958 30063.9687 -161.2017 -92.4397
ENERGY: 1500000 3.4955 9.1690 4.5809 0.0000 -10671.4732 1433.4991 0.0000 0.0000 1740.0177 -7480.7110 297.7275 -9220.7287 -7423.9180 299.6195 172.8618 202.9464 29919.1371 -109.1950 -48.1597
TCL: Running FEP window   4: Lambda1 0.8499999999999999 Lambda2 0.7999999999999998 [dLambda -0.050000000000000044]
TCL: Setting parameter firsttimestep to 0
TCL: Setting parameter alchLambda to 0.8499999999999999
Info: NONBONDED TABLE R-SQUARED SPACING: 0.0625
Info: NONBONDED TABLE SIZE: 705 POINTS
TCL: Setting parameter alchLambda2 to 0.7999999999999998
Info: NONBONDED TABLE R-SQUARED SPACING: 0.0625
Info: NONBONDED TABLE SIZE: 705 POINTS
TCL: Running for 1500000 steps
ETITLE: TS BOND ANGLE DIHED IMPRP ELECT VDW BOUNDARY MISC KINETIC TOTAL TEMP POTENTIAL TOTALAVG TEMPAVG PRESSURE GPRESSURE VOLUME PRESSAVG GPRESSAVG
ENERGY: 0 3.4955 9.1690 4.5809 0.0000 -10669.6428 1432.6393 0.0000 0.0000 1739.1812 -7480.5770 297.5844 -9219.7581 -7480.5770 297.5844 111.7723 182.5025 29919.1371 111.7723 182.5025
ENERGY: 300000 4.9264 4.9874 9.7990 0.0000 -10600.9342 1448.4674 0.0000 0.0000 1706.1169 -7426.6370 291.9269 -9132.7539 -7419.6299 297.6816 156.3392 271.4586 30329.6598 -374.0939 -307.8734
ENERGY: 600000 5.9153 8.6055 6.1677 0.0000 -10553.9290 1430.4349 0.0000 0.0000 1773.4892 -7329.3164 303.4547 -9102.8056 -7410.0272 299.0910 59.1771 97.1928 30591.7316 -43.0359 20.2040
ENERGY: 900000 6.8573 7.3882 2.6915 0.0000 -10524.4136 1318.5764 0.0000 0.0000 1759.6349 -7429.2652 301.0842 -9188.9001 -7426.4838 299.3943 -1170.6766 -1094.7186 30498.0330 -176.7324 -117.9753
ENERGY: 1200000 8.7067 6.4148 4.3618 0.0000 -10577.5027 1337.7757 0.0000 0.0000 1710.9276 -7509.3161 292.7501 -9220.2437 -7442.4880 298.5040 -839.8441 -755.5505 30255.7630 -304.6926 -238.9219
ENERGY: 1500000 4.2317 4.9901 4.0285 0.0000 -10715.3899 1479.4162 0.0000 0.0000 1754.0410 -7468.6826 300.1270 -9222.7236 -7442.6746 298.8570 540.7186 558.2975 29912.9307 -357.8618 -295.0157
TCL: Running FEP window   5: Lambda1 0.7999999999999998 Lambda2 0.7499999999999998 [dLambda -0.050000000000000044]
TCL: Setting parameter firsttimestep to 0
TCL: Setting parameter alchLambda to 0.7999999999999998
Info: NONBONDED TABLE R-SQUARED SPACING: 0.0625
Info: NONBONDED TABLE SIZE: 705 POINTS
TCL: Setting parameter alchLambda2 to 0.7499999999999998
Info: NONBONDED TABLE R-SQUARED SPACING: 0.0625
Info: NONBONDED TABLE SIZE: 705 POINTS
TCL: Running for 1500000 steps
ETITLE: TS BOND ANGLE DIHED IMPRP ELECT VDW BOUNDARY MISC KINETIC TOTAL TEMP POTENTIAL TOTALAVG TEMPAVG PRESSURE GPRESSURE VOLUME PRESSAVG GPRESSAVG
ENERGY: 0 4.2317 4.9901 4.0285 0.0000 -10713.9881 1479.4682 0.0000 0.0000 1753.1969 -7468.0728 299.9826 -9221.2697 -7468.0728 299.9826 460.8742 549.3847 29912.9307 460.8742 549.3847
ENERGY: 300000 1.7839 8.3014 2.8517 0.0000 -10534.7995 1392.9442 0.0000 0.0000 1800.3949 -7328.5234 308.0585 -9128.9184 -7433.0343 303.5115 -116.5560 -90.5768 30449.9136 181.8405 250.8329
ENERGY: 600000 1.2624 2.7632 6.2990 0.0000 -10592.4114 1368.0606 0.0000 0.0000 1709.8562 -7504.1699 292.5667 -9214.0262 -7432.7460 301.3856 -680.9590 -638.2587 30264.9397 -33.2792 35.7749
ENERGY: 900000 3.0880 7.6481 2.7343 0.0000 -10683.2453 1418.2547 0.0000 0.0000 1754.0963 -7497.4238 300.1365 -9251.5201 -7433.6317 302.2807 -415.8713 -370.5075 30483.1065 45.5105 112.4520
ENERGY: 1200000 2.9709 7.4914 3.4051 0.0000 -10844.1070 1539.6726 0.0000 0.0000 1827.1507 -7463.4163 312.6365 -9290.5670 -7434.9198 303.3090 973.9637 1024.7928 29490.9416 152.0494 215.5073
ENERGY: 1500000 2.0222 4.0700 4.6067 0.0000 -10729.1322 1502.9434 0.0000 0.0000 1750.6959 -7464.7940 299.5547 -9215.4899 -7437.5594 303.0467 185.8229 303.0942 30385.5325 201.1301 266.4440
TCL: Running FEP window   6: Lambda1 0.7499999999999998 Lambda2 0.6999999999999997 [dLambda -0.050000000000000044]
TCL: Setting parameter firsttimestep to 0
TCL: Setting parameter alchLambda to 0.7499999999999998
Info: NONBONDED TABLE R-SQUARED SPACING: 0.0625
Info: NONBONDED TABLE SIZE: 705 POINTS
TCL: Setting parameter alchLambda2 to 0.6999999999999997
Info: NONBONDED TABLE R-SQUARED SPACING: 0.0625
Info: NONBONDED TABLE SIZE: 705 POINTS
TCL: Running for 1500000 steps
ETITLE: TS BOND ANGLE DIHED IMPRP ELECT VDW BOUNDARY MISC KINETIC TOTAL TEMP POTENTIAL TOTALAVG TEMPAVG PRESSURE GPRESSURE VOLUME PRESSAVG GPRESSAVG
ENERGY: 0 2.0222 4.0700 4.6067 0.0000 -10728.1521 1503.1619 0.0000 0.0000 1749.8225 -7464.4688 299.4052 -9214.2913 -7464.4688 299.4052 193.5436 295.0255 30385.5325 193.5436 295.0255
ENERGY: 300000 2.6488 9.0355 5.3235 0.0000 -10628.5854 1456.1675 0.0000 0.0000 1785.9341 -7369.4760 305.5841 -9155.4102 -7424.7399 297.6229 368.1866 439.5096 30219.6861 143.2454 227.1781
ENERGY: 600000 4.9221 5.0385 3.2384 0.0000 -10722.7407 1535.6542 0.0000 0.0000 1753.1973 -7420.6902 299.9827 -9173.8874 -7426.5328 297.9402 1005.6761 1049.3471 30169.0765 314.1070 378.0316
ENERGY: 900000 4.6540 3.3829 1.5267 0.0000 -10568.5088 1445.8608 0.0000 0.0000 1781.6786 -7331.4058 304.8560 -9113.0844 -7426.8596 298.2952 296.4052 338.4486 30503.3817 181.5766 242.7341
ENERGY: 1200000 1.7704 11.2789 6.7456 0.0000 -10615.1047 1463.2827 0.0000 0.0000 1749.1406 -7382.8865 299.2885 -9132.0270 -7430.2593 298.3854 385.0536 503.9192 30255.0288 158.5212 222.7039
ENERGY: 1500000 4.5684 8.9606 2.9240 0.0000 -10555.7027 1457.7929 0.0000 0.0000 1754.3510 -7327.1057 300.1801 -9081.4567 -7422.5605 299.3491 453.6371 560.5626 30583.1089 198.7807 262.3104
TCL: Running FEP window   7: Lambda1 0.6999999999999997 Lambda2 0.6499999999999997 [dLambda -0.050000000000000044]
TCL: Setting parameter firsttimestep to 0
TCL: Setting parameter alchLambda to 0.6999999999999997
Info: NONBONDED TABLE R-SQUARED SPACING: 0.0625
Info: NONBONDED TABLE SIZE: 705 POINTS
TCL: Setting parameter alchLambda2 to 0.6499999999999997
Info: NONBONDED TABLE R-SQUARED SPACING: 0.0625
Info: NONBONDED TABLE SIZE: 705 POINTS
TCL: Running for 1500000 steps
ETITLE: TS BOND ANGLE DIHED IMPRP ELECT VDW BOUNDARY MISC KINETIC TOTAL TEMP POTENTIAL TOTALAVG TEMPAVG PRESSURE GPRESSURE VOLUME PRESSAVG GPRESSAVG
ENERGY: 0 4.5684 8.9606 2.9240 0.0000 -10554.0867 1457.9424 0.0000 0.0000 1753.4824 -7326.2088 300.0315 -9079.6912 -7326.2088 300.0315 469.9889 555.9733 30583.1089 469.9889 555.9733
ENERGY: 300000 2.7493 9.2115 5.9018 0.0000 -10609.5047 1427.7310 0.0000 0.0000 1764.6355 -7399.2756 301.9398 -9163.9111 -7361.9682 304.8619 47.1586 68.0767 30365.2102 221.4802 277.3829
ENERGY: 600000 3.3828 2.0897 6.7403 0.0000 -10692.1760 1426.4479 0.0000 0.0000 1732.4798 -7521.0355 296.4378 -9253.5153 -7389.8576 303.1117 -340.2713 -304.2363 30286.0984 31.3627 83.5489
ENERGY: 900000 1.1036 8.7363 3.2035 0.0000 -10653.6123 1409.0772 0.0000 0.0000 1710.1970 -7521.2947 292.6250 -9231.4916 -7417.9130 300.2373 -96.2234 -46.9233 29955.3150 -34.4618 23.0690
ENERGY: 1200000 2.8742 7.2274 3.4614 0.0000 -10746.9345 1460.0627 0.0000 0.0000 1797.3371 -7475.9717 307.5353 -9273.3088 -7431.5318 300.9186 -92.5787 -26.4490 30206.9605 -120.6163 -69.3121
ENERGY: 1500000 7.1079 8.8531 9.4185 0.0000 -10685.2295 1412.3836 0.0000 0.0000 1688.1231 -7559.3432 288.8481 -9247.4664 -7446.2513 298.7185 -217.4435 -161.3559 30048.1867 -124.7198 -68.9150
TCL: Running FEP window   8: Lambda1 0.6499999999999997 Lambda2 0.5999999999999996 [dLambda -0.050000000000000044]
TCL: Setting parameter firsttimestep to 0
TCL: Setting parameter alchLambda to 0.6499999999999997
Info: NONBONDED TABLE R-SQUARED SPACING: 0.0625
Info: NONBONDED TABLE SIZE: 705 POINTS
TCL: Setting parameter alchLambda2 to 0.5999999999999996
Info: NONBONDED TABLE R-SQUARED SPACING: 0.0625
Info: NONBONDED TABLE SIZE: 705 POINTS
TCL: Running for 1500000 steps
ETITLE: TS BOND ANGLE DIHED IMPRP ELECT VDW BOUNDARY MISC KINETIC TOTAL TEMP POTENTIAL TOTALAVG TEMPAVG PRESSURE GPRESSURE VOLUME PRESSAVG GPRESSAVG
ENERGY: 0 7.1079 8.8531 9.4185 0.0000 -10684.3414 1412.9395 0.0000 0.0000 1687.2519 -7558.7705 288.6990 -9246.0224 -7558.7705 288.6990 -227.8874 -165.4550 30048.1867 -227.8874 -165.4550
ENERGY: 300000 2.2848 6.0566 6.7621 0.0000 -10460.2708 1341.1630 0.0000 0.0000 1742.3064 -7361.6979 298.1192 -9104.0042 -7469.0280 297.7671 -655.8245 -583.6640 30569.3797 -345.4372 -284.9240
ENERGY: 600000 1.9756 4.7138 4.6472 0.0000 -10660.6495 1523.2626 0.0000 0.0000 1775.4522 -7350.5982 303.7906 -9126.0504 -7443.7572 298.8749 691.1297 739.8084 30660.5537 -87.7766 -24.6970
ENERGY: 900000 3.0026 7.5251 7.6984 0.0000 -10628.4520 1446.0785 0.0000 0.0000 1757.6621 -7406.4853 300.7466 -9164.1474 -7446.5926 297.9394 385.9029 419.5629 30023.7971 27.1158 86.8165
ENERGY: 1200000 3.5838 5.7922 3.7050 0.0000 -10658.7544 1468.2428 0.0000 0.0000 1736.6877 -7440.7430 297.1578 -9177.4307 -7439.5060 298.2163 469.1262 528.3668 30167.5710 101.2051 160.0057
ENERGY: 1500000 3.7871 7.1174 1.6035 0.0000 -10594.6268 1407.6756 0.0000 0.0000 1774.1893 -7400.2539 303.5745 -9174.4432 -7435.1394 298.2971 -172.8315 -86.6980 30385.6178 91.2085 153.0997
TCL: Running FEP window   9: Lambda1 0.5999999999999996 Lambda2 0.5499999999999996 [dLambda -0.050000000000000044]
TCL: Setting parameter firsttimestep to 0
TCL: Setting parameter alchLambda to 0.5999999999999996
Info: NONBONDED TABLE R-SQUARED SPACING: 0.0625
Info: NONBONDED TABLE SIZE: 705 POINTS
TCL: Setting parameter alchLambda2 to 0.5499999999999996
Info: NONBONDED TABLE R-SQUARED SPACING: 0.0625
Info: NONBONDED TABLE SIZE: 705 POINTS
TCL: Running for 1500000 steps
ETITLE: TS BOND ANGLE DIHED IMPRP ELECT VDW BOUNDARY MISC KINETIC TOTAL TEMP POTENTIAL TOTALAVG TEMPAVG PRESSURE GPRESSURE VOLUME PRESSAVG GPRESSAVG
ENERGY: 0 3.7871 7.1174 1.6035 0.0000 -10594.0161 1408.5441 0.0000 0.0000 1773.2787 -7399.6852 303.4187 -9172.9639 -7399.6852 303.4187 -166.5249 -83.8039 30385.6178 -166.5249 -83.8039
ENERGY: 300000 3.7390 9.8047 4.1276 0.0000 -10655.2820 1440.0976 0.0000 0.0000 1756.6030 -7440.9101 300.5654 -9197.5131 -7430.0435 297.9129 -58.1484 7.2740 30380.9927 -195.1763 -96.3865
ENERGY: 600000 1.2965 10.6024 3.1940 0.0000 -10609.2151 1415.0902 0.0000 0.0000 1783.1557 -7395.8764 305.1087 -9179.0320 -7411.1031 300.1135 88.3913 88.8973 30118.7072 -73.2713 0.5573
ENERGY: 900000 2.9681 5.2631 2.4654 0.0000 -10589.3552 1365.4772 0.0000 0.0000 1802.2787 -7410.9028 308.3808 -9213.1815 -7410.5982 300.6050 -616.7757 -572.1127 30383.4472 -21.5664 50.6722
ENERGY: 1200000 2.1764 6.6903 6.8812 0.0000 -10515.0731 1391.6485 0.0000 0.0000 1716.9909 -7390.6858 293.7875 -9107.6767 -7410.4267 300.4597 -143.3563 -98.0858 30457.1399 -9.2218 60.1338
ENERGY: 1500000 3.0168 7.9998 3.5492 0.0000 -10632.5359 1400.6555 0.0000 0.0000 1753.6626 -7463.6520 300.0623 -9217.3147 -7417.9493 300.9945 -170.6094 -66.7498 30099.5743 -45.4109 27.0721
TCL: Running FEP window  10: Lambda1 0.5499999999999996 Lambda2 0.4999999999999996 [dLambda -0.04999999999999999]
TCL: Setting parameter firsttimestep to 0
TCL: Setting parameter alchLambda to 0.5499999999999996
Info: NONBONDED TABLE R-SQUARED SPACING: 0.0625
Info: NONBONDED TABLE SIZE: 705 POINTS
TCL: Setting parameter alchLambda2 to 0.4999999999999996
Info: NONBONDED TABLE R-SQUARED SPACING: 0.0625
Info: NONBONDED TABLE SIZE: 705 POINTS
TCL: Running for 1500000 steps
ETITLE: TS BOND ANGLE DIHED IMPRP ELECT VDW BOUNDARY MISC KINETIC TOTAL TEMP POTENTIAL TOTALAVG TEMPAVG PRESSURE GPRESSURE VOLUME PRESSAVG GPRESSAVG
ENERGY: 0 3.0168 7.9998 3.5492 0.0000 -10632.2260 1401.2094 0.0000 0.0000 1752.7863 -7463.6645 299.9123 -9216.4508 -7463.6645 299.9123 -150.9644 -68.7844 30099.5743 -150.9644 -68.7844
ENERGY: 300000 1.1642 8.9677 2.2613 0.0000 -10639.2844 1428.4130 0.0000 0.0000 1724.7472 -7473.7311 295.1147 -9198.4784 -7455.7958 298.8891 43.6074 170.4320 29769.2564 -290.6846 -219.4518
ENERGY: 600000 2.0142 5.2419 5.7200 0.0000 -10665.9079 1367.5987 0.0000 0.0000 1786.4273 -7498.9059 305.6685 -9285.3332 -7461.3410 300.1158 -873.9434 -802.3446 30127.0163 -473.3297 -408.4720
ENERGY: 900000 8.9883 8.9627 2.7397 0.0000 -10589.0975 1367.5960 0.0000 0.0000 1788.5748 -7412.2358 306.0360 -9200.8106 -7457.9998 299.7186 -584.5993 -484.8089 30202.8176 -437.2329 -364.7368
ENERGY: 1200000 3.3177 6.6293 5.6873 0.0000 -10681.4074 1473.3828 0.0000 0.0000 1776.9027 -7415.4876 304.0388 -9192.3903 -7449.3732 300.0876 531.3196 615.8422 29925.7685 -324.8047 -253.0503
ENERGY: 1500000 7.6853 7.3639 2.0376 0.0000 -10652.1905 1469.2888 0.0000 0.0000 1744.1076 -7421.7073 298.4274 -9165.8149 -7450.3310 299.8083 238.1465 323.8774 30207.8455 -252.1117 -175.5973
TCL: Running FEP window  11: Lambda1 0.4999999999999996 Lambda2 0.4499999999999996 [dLambda -0.04999999999999999]
TCL: Setting parameter firsttimestep to 0
TCL: Setting parameter alchLambda to 0.4999999999999996
Info: NONBONDED TABLE R-SQUARED SPACING: 0.0625
Info: NONBONDED TABLE SIZE: 705 POINTS
TCL: Setting parameter alchLambda2 to 0.4499999999999996
Info: NONBONDED TABLE R-SQUARED SPACING: 0.0625
Info: NONBONDED TABLE SIZE: 705 POINTS
TCL: Running for 1500000 steps
ETITLE: TS BOND ANGLE DIHED IMPRP ELECT VDW BOUNDARY MISC KINETIC TOTAL TEMP POTENTIAL TOTALAVG TEMPAVG PRESSURE GPRESSURE VOLUME PRESSAVG GPRESSAVG
ENERGY: 0 7.6853 7.3639 2.0376 0.0000 -10651.8023 1469.4491 0.0000 0.0000 1743.2325 -7422.0339 298.2776 -9165.2664 -7422.0339 298.2776 229.3240 319.7382 30207.8455 229.3240 319.7382
ENERGY: 300000 6.2606 5.4580 3.2785 0.0000 -10647.2122 1429.4863 0.0000 0.0000 1731.9069 -7470.8219 296.3398 -9202.7288 -7413.8575 299.3949 -203.3248 -105.1498 30118.4459 -229.8201 -140.9994
ENERGY: 600000 2.2373 7.0886 2.9576 0.0000 -10690.8383 1465.3755 0.0000 0.0000 1779.9513 -7433.2279 304.5604 -9213.1792 -7402.4639 300.6576 532.0712 557.5621 29685.0541 -39.6893 42.8151
ENERGY: 900000 4.9326 6.7320 4.8220 0.0000 -10597.0346 1410.1723 0.0000 0.0000 1756.3437 -7414.0320 300.5210 -9170.3757 -7407.6401 300.9728 -53.9037 -44.7803 30034.8387 -32.9226 53.3103
ENERGY: 1200000 1.4953 5.3763 3.6126 0.0000 -10692.7387 1513.8227 0.0000 0.0000 1768.0090 -7400.4227 302.5170 -9168.4318 -7411.4412 301.5586 730.4492 800.4072 30214.0820 59.3419 145.2278
ENERGY: 1500000 5.6297 4.5427 5.3964 0.0000 -10652.0349 1464.3181 0.0000 0.0000 1833.9803 -7338.1677 313.8051 -9172.1480 -7406.2780 302.7624 338.8788 362.8042 30219.5620 -0.4809 69.3465
TCL: Running FEP window  12: Lambda1 0.4499999999999996 Lambda2 0.39999999999999963 [dLambda -0.04999999999999999]
TCL: Setting parameter firsttimestep to 0
TCL: Setting parameter alchLambda to 0.4499999999999996
Info: NONBONDED TABLE R-SQUARED SPACING: 0.0625
Info: NONBONDED TABLE SIZE: 705 POINTS
TCL: Setting parameter alchLambda2 to 0.39999999999999963
Info: NONBONDED TABLE R-SQUARED SPACING: 0.0625
Info: NONBONDED TABLE SIZE: 705 POINTS
TCL: Running for 1500000 steps
ETITLE: TS BOND ANGLE DIHED IMPRP ELECT VDW BOUNDARY MISC KINETIC TOTAL TEMP POTENTIAL TOTALAVG TEMPAVG PRESSURE GPRESSURE VOLUME PRESSAVG GPRESSAVG
ENERGY: 0 5.6297 4.5427 5.3964 0.0000 -10652.0342 1465.1522 0.0000 0.0000 1833.1205 -7338.1928 313.6580 -9171.3132 -7338.1928 313.6580 291.2582 361.9962 30219.5620 291.2582 361.9962
ENERGY: 300000 2.9363 12.3972 4.2898 0.0000 -10671.6621 1432.4468 0.0000 0.0000 1739.2973 -7480.2948 297.6043 -9219.5920 -7424.2869 302.7489 -284.4835 -247.4534 30395.2023 -16.5955 62.3333
ENERGY: 600000 2.1363 6.8916 3.9641 0.0000 -10700.9436 1479.4500 0.0000 0.0000 1743.1774 -7465.3242 298.2682 -9208.5016 -7427.0649 302.0602 501.7613 579.1402 29670.4858 71.7273 135.6062
ENERGY: 900000 2.0411 7.3245 5.3672 0.0000 -10662.4522 1462.2910 0.0000 0.0000 1675.1648 -7510.2636 286.6308 -9185.4284 -7432.7860 299.8509 300.9795 348.5599 29955.1541 117.6253 169.8593
ENERGY: 1200000 3.6113 2.5794 7.2408 0.0000 -10618.0484 1391.3987 0.0000 0.0000 1794.1005 -7419.1177 306.9815 -9213.2182 -7426.5130 300.9644 -296.0619 -231.3047 29826.7070 -8.9089 40.6727
ENERGY: 1500000 4.1615 5.7414 2.7405 0.0000 -10560.9984 1373.5296 0.0000 0.0000 1812.1809 -7362.6446 310.0751 -9174.8254 -7427.6894 301.9302 -534.0152 -452.3865 30117.5957 -23.2170 30.8302
TCL: Running FEP window  13: Lambda1 0.39999999999999963 Lambda2 0.34999999999999964 [dLambda -0.04999999999999999]
TCL: Setting parameter firsttimestep to 0
TCL: Setting parameter alchLambda to 0.39999999999999963
Info: NONBONDED TABLE R-SQUARED SPACING: 0.0625
Info: NONBONDED TABLE SIZE: 705 POINTS
TCL: Setting parameter alchLambda2 to 0.34999999999999964
Info: NONBONDED TABLE R-SQUARED SPACING: 0.0625
Info: NONBONDED TABLE SIZE: 705 POINTS
TCL: Running for 1500000 steps
ETITLE: TS BOND ANGLE DIHED IMPRP ELECT VDW BOUNDARY MISC KINETIC TOTAL TEMP POTENTIAL TOTALAVG TEMPAVG PRESSURE GPRESSURE VOLUME PRESSAVG GPRESSAVG
ENERGY: 0 4.1615 5.7414 2.7405 0.0000 -10560.9986 1373.5740 0.0000 0.0000 1811.3355 -7363.4457 309.9305 -9174.7812 -7363.4457 309.9305 -542.7354 -459.1744 30117.5957 -542.7354 -459.1744
ENERGY: 300000 2.2220 7.8810 3.6179 0.0000 -10529.3931 1384.5874 0.0000 0.0000 1765.9015 -7365.1833 302.1564 -9131.0848 -7387.8061 302.1681 -258.8372 -233.9644 30328.9195 -380.7370 -326.8292
ENERGY: 600000 1.7075 9.8782 3.5896 0.0000 -10521.3133 1424.8099 0.0000 0.0000 1797.8205 -7283.5077 307.6180 -9081.3282 -7369.4675 303.0623 202.6289 265.6773 30422.7316 -167.5472 -107.2097
ENERGY: 900000 0.7514 5.0560 1.9880 0.0000 -10769.3928 1520.3098 0.0000 0.0000 1778.8132 -7462.4742 304.3657 -9241.2875 -7394.2456 303.6189 605.3532 681.1463 30060.8045 -65.0357 -1.7852
ENERGY: 1200000 1.0639 7.5768 3.8727 0.0000 -10707.0601 1502.8784 0.0000 0.0000 1735.9092 -7455.7590 297.0246 -9191.6682 -7391.8216 303.3081 685.8212 746.6152 29966.3141 18.5821 85.1477
ENERGY: 1500000 3.2519 8.0305 4.7546 0.0000 -10711.8444 1500.8413 0.0000 0.0000 1715.3732 -7479.5929 293.5107 -9194.9662 -7400.3986 302.0891 479.2490 527.9516 29994.8352 74.9252 140.7422
TCL: Running FEP window  14: Lambda1 0.34999999999999964 Lambda2 0.29999999999999966 [dLambda -0.04999999999999999]
TCL: Setting parameter firsttimestep to 0
TCL: Setting parameter alchLambda to 0.34999999999999964
Info: NONBONDED TABLE R-SQUARED SPACING: 0.0625
Info: NONBONDED TABLE SIZE: 705 POINTS
TCL: Setting parameter alchLambda2 to 0.29999999999999966
Info: NONBONDED TABLE R-SQUARED SPACING: 0.0625
Info: NONBONDED TABLE SIZE: 705 POINTS
TCL: Running for 1500000 steps
ETITLE: TS BOND ANGLE DIHED IMPRP ELECT VDW BOUNDARY MISC KINETIC TOTAL TEMP POTENTIAL TOTALAVG TEMPAVG PRESSURE GPRESSURE VOLUME PRESSAVG GPRESSAVG
ENERGY: 0 3.2519 8.0304 4.7546 0.0000 -10711.8470 1501.1733 0.0000 0.0000 1714.5326 -7480.1042 293.3669 -9194.6368 -7480.1042 293.3669 458.5402 525.6728 29994.8352 458.5402 525.6728
ENERGY: 300000 1.7421 5.8652 3.5119 0.0000 -10708.5355 1421.0299 0.0000 0.0000 1756.8442 -7519.5423 300.6067 -9276.3865 -7464.0461 295.8958 -483.2297 -365.9994 30085.7456 33.3490 100.9899
ENERGY: 600000 3.9007 4.7746 4.3633 0.0000 -10588.8819 1418.0575 0.0000 0.0000 1767.7281 -7390.0576 302.4690 -9157.7858 -7445.8320 299.3046 -43.7580 29.8314 30171.2073 4.2137 74.8917
ENERGY: 900000 2.5651 5.1314 6.1925 0.0000 -10722.5418 1453.1543 0.0000 0.0000 1775.1200 -7480.3784 303.7338 -9255.4985 -7454.4565 299.7603 -227.2784 -248.6524 30517.1491 -145.5340 -89.7502
ENERGY: 1200000 5.8602 6.6037 2.0383 0.0000 -10516.1868 1349.7491 0.0000 0.0000 1748.6700 -7403.2656 299.2080 -9151.9356 -7444.3306 300.1292 -495.2564 -466.3827 30218.4810 -171.1976 -117.6081
ENERGY: 1500000 2.5745 7.9085 3.0033 0.0000 -10576.6069 1362.7014 0.0000 0.0000 1712.8501 -7487.5691 293.0790 -9200.4192 -7453.9243 299.1608 -763.6495 -584.4318 30281.2989 -224.8694 -163.0538
TCL: Running FEP window  15: Lambda1 0.29999999999999966 Lambda2 0.24999999999999967 [dLambda -0.04999999999999999]
TCL: Setting parameter firsttimestep to 0
TCL: Setting parameter alchLambda to 0.29999999999999966
Info: NONBONDED TABLE R-SQUARED SPACING: 0.0625
Info: NONBONDED TABLE SIZE: 705 POINTS
TCL: Setting parameter alchLambda2 to 0.24999999999999967
Info: NONBONDED TABLE R-SQUARED SPACING: 0.0625
Info: NONBONDED TABLE SIZE: 705 POINTS
TCL: Running for 1500000 steps
ETITLE: TS BOND ANGLE DIHED IMPRP ELECT VDW BOUNDARY MISC KINETIC TOTAL TEMP POTENTIAL TOTALAVG TEMPAVG PRESSURE GPRESSURE VOLUME PRESSAVG GPRESSAVG
ENERGY: 0 2.5745 7.9085 3.0033 0.0000 -10576.6077 1362.7533 0.0000 0.0000 1711.9640 -7488.4041 292.9274 -9200.3682 -7488.4041 292.9274 -680.0243 -590.3009 30281.2989 -680.0243 -590.3009
ENERGY: 300000 1.0377 7.1872 3.1263 0.0000 -10711.0906 1496.1185 0.0000 0.0000 1764.1116 -7439.5093 301.8502 -9203.6209 -7405.9782 300.0516 586.7798 625.0661 29712.2820 -14.5254 55.6336
ENERGY: 600000 5.7597 13.6420 4.5251 0.0000 -10498.7090 1345.5337 0.0000 0.0000 1832.5244 -7296.7242 313.5560 -9129.2485 -7376.1437 303.8707 -545.1229 -533.8460 29907.9583 -6.9946 40.4289
ENERGY: 900000 1.9409 7.8654 4.6246 0.0000 -10604.1629 1422.3730 0.0000 0.0000 1772.2725 -7395.0865 303.2465 -9167.3590 -7390.4743 303.6975 -28.6130 33.0197 29889.0761 -43.7536 -0.7475
ENERGY: 1200000 3.9008 9.0349 6.8538 0.0000 -10470.0849 1349.7495 0.0000 0.0000 1772.3428 -7328.2032 303.2586 -9100.5459 -7386.3662 303.1091 -657.5634 -617.6493 30608.0049 -112.6217 -66.0510
ENERGY: 1500000 1.5300 7.3331 7.6331 0.0000 -10717.9749 1441.7632 0.0000 0.0000 1808.8339 -7450.8817 309.5024 -9259.7156 -7394.0699 302.7467 107.3425 105.4575 29819.8768 -64.7430 -18.0791
TCL: Running FEP window  16: Lambda1 0.24999999999999967 Lambda2 0.19999999999999968 [dLambda -0.04999999999999999]
TCL: Setting parameter firsttimestep to 0
TCL: Setting parameter alchLambda to 0.24999999999999967
Info: NONBONDED TABLE R-SQUARED SPACING: 0.0625
Info: NONBONDED TABLE SIZE: 705 POINTS
TCL: Setting parameter alchLambda2 to 0.19999999999999968
Info: NONBONDED TABLE R-SQUARED SPACING: 0.0625
Info: NONBONDED TABLE SIZE: 705 POINTS
TCL: Running for 1500000 steps
ETITLE: TS BOND ANGLE DIHED IMPRP ELECT VDW BOUNDARY MISC KINETIC TOTAL TEMP POTENTIAL TOTALAVG TEMPAVG PRESSURE GPRESSURE VOLUME PRESSAVG GPRESSAVG
ENERGY: 0 1.5300 7.3331 7.6331 0.0000 -10717.9760 1442.0135 0.0000 0.0000 1807.9460 -7451.5203 309.3505 -9259.4663 -7451.5203 309.3505 22.3028 102.3076 29819.8768 22.3028 102.3076
ENERGY: 300000 4.3495 8.5453 1.7406 0.0000 -10679.9785 1446.9563 0.0000 0.0000 1763.9466 -7454.4404 301.8219 -9218.3869 -7448.8976 303.9793 -129.5525 -152.5454 30438.0859 -249.0204 -183.6829
ENERGY: 600000 3.7680 5.8909 2.9050 0.0000 -10672.7264 1448.8410 0.0000 0.0000 1720.2619 -7491.0596 294.3472 -9211.3215 -7456.8774 301.1599 -113.8467 20.8378 30107.0219 -107.2572 -24.1535
ENERGY: 900000 3.5005 7.4708 5.4671 0.0000 -10512.6524 1293.6361 0.0000 0.0000 1747.1137 -7455.4642 298.9417 -9202.5779 -7445.8084 301.0892 -1308.8604 -1201.8047 30196.3042 -288.4430 -198.7309
ENERGY: 1200000 2.5139 9.6423 4.9852 0.0000 -10814.1510 1551.6637 0.0000 0.0000 1788.0129 -7457.3330 305.9398 -9245.3459 -7433.5881 302.1976 742.4825 749.6418 30105.8208 -59.5955 20.9790
ENERGY: 1500000 3.6534 8.1406 3.5747 0.0000 -10667.4195 1451.4747 0.0000 0.0000 1671.6107 -7528.9655 286.0227 -9200.5762 -7417.0249 301.9106 -215.9826 -121.8988 30357.2068 -85.7330 -13.1954
TCL: Running FEP window  17: Lambda1 0.19999999999999968 Lambda2 0.1499999999999997 [dLambda -0.04999999999999999]
TCL: Setting parameter firsttimestep to 0
TCL: Setting parameter alchLambda to 0.19999999999999968
Info: NONBONDED TABLE R-SQUARED SPACING: 0.0625
Info: NONBONDED TABLE SIZE: 705 POINTS
TCL: Setting parameter alchLambda2 to 0.1499999999999997
Info: NONBONDED TABLE R-SQUARED SPACING: 0.0625
Info: NONBONDED TABLE SIZE: 705 POINTS
TCL: Running for 1500000 steps
ETITLE: TS BOND ANGLE DIHED IMPRP ELECT VDW BOUNDARY MISC KINETIC TOTAL TEMP POTENTIAL TOTALAVG TEMPAVG PRESSURE GPRESSURE VOLUME PRESSAVG GPRESSAVG
ENERGY: 0 3.6534 8.1406 3.5747 0.0000 -10667.4200 1449.7211 0.0000 0.0000 1670.7505 -7531.5797 285.8755 -9202.3302 -7531.5797 285.8755 -223.0005 -135.6293 30357.2068 -223.0005 -135.6293
ENERGY: 300000 3.0888 4.6579 2.9996 0.0000 -10549.9234 1408.4736 0.0000 0.0000 1746.1391 -7384.5644 298.7750 -9130.7036 -7438.8003 299.2147 -243.2996 -194.9671 30304.8308 -127.2801 -95.4401
ENERGY: 600000 2.4422 8.1277 6.6660 0.0000 -10689.0480 1515.3530 0.0000 0.0000 1756.5460 -7399.9129 300.5556 -9156.4590 -7442.1907 298.5328 612.0082 718.5136 30216.8162 -34.9082 36.6525
ENERGY: 900000 3.6276 4.8663 3.4942 0.0000 -10649.6467 1453.0691 0.0000 0.0000 1734.8880 -7449.7016 296.8498 -9184.5895 -7425.4527 300.2350 105.2411 151.5389 29916.4927 -49.2164 16.5179
ENERGY: 1200000 1.6156 9.9533 2.4463 0.0000 -10743.9083 1504.7968 0.0000 0.0000 1727.9009 -7497.1953 295.6543 -9225.0963 -7431.9980 299.8068 579.8753 565.8567 30105.6049 -50.6193 3.9352
ENERGY: 1500000 3.1240 8.3882 2.3053 0.0000 -10551.0634 1382.9851 0.0000 0.0000 1701.3963 -7452.8646 291.1192 -9154.2609 -7440.7049 298.9536 -230.9934 -120.0749 29736.7842 -37.3012 25.2785
TCL: Running FEP window  18: Lambda1 0.1499999999999997 Lambda2 0.09999999999999969 [dLambda -0.05 ]
TCL: Setting parameter firsttimestep to 0
TCL: Setting parameter alchLambda to 0.1499999999999997
Info: NONBONDED TABLE R-SQUARED SPACING: 0.0625
Info: NONBONDED TABLE SIZE: 705 POINTS
TCL: Setting parameter alchLambda2 to 0.09999999999999969
Info: NONBONDED TABLE R-SQUARED SPACING: 0.0625
Info: NONBONDED TABLE SIZE: 705 POINTS
TCL: Running for 1500000 steps
ETITLE: TS BOND ANGLE DIHED IMPRP ELECT VDW BOUNDARY MISC KINETIC TOTAL TEMP POTENTIAL TOTALAVG TEMPAVG PRESSURE GPRESSURE VOLUME PRESSAVG GPRESSAVG
ENERGY: 0 3.1240 8.3882 2.3053 0.0000 -10551.0651 1383.3629 0.0000 0.0000 1700.5035 -7453.3813 290.9664 -9153.8847 -7453.3813 290.9664 -222.7616 -120.6201 29736.7842 -222.7616 -120.6201
ENERGY: 300000 0.6397 5.6648 8.0798 0.0000 -10685.3433 1461.3448 0.0000 0.0000 1750.2854 -7459.3288 299.4844 -9209.6142 -7432.4041 296.4527 405.8824 466.9877 29709.2804 -22.2279 40.9099
ENERGY: 600000 2.8385 8.7161 4.8619 0.0000 -10488.2165 1376.8584 0.0000 0.0000 1766.4763 -7328.4654 302.2548 -9094.9417 -7435.0655 297.8007 -317.8871 -248.2668 30009.3312 -274.6462 -203.5230
ENERGY: 900000 6.4165 8.2841 3.7873 0.0000 -10582.4472 1426.4766 0.0000 0.0000 1728.7610 -7408.7216 295.8015 -9137.4826 -7439.1081 297.1307 -21.8232 -41.5734 30167.4291 -42.8701 13.2507
ENERGY: 1200000 2.6612 6.6901 2.5564 0.0000 -10752.9309 1532.7439 0.0000 0.0000 1723.2218 -7485.0575 294.8537 -9208.2793 -7435.3711 297.7202 688.1614 759.1135 29986.4949 -44.6500 15.0929
ENERGY: 1500000 2.0275 5.1964 4.8104 0.0000 -10544.4255 1311.4344 0.0000 0.0000 1763.4986 -7457.4582 301.7453 -9220.9568 -7438.7863 298.9279 -1091.5311 -1006.8860 30148.5559 -163.3930 -106.2020
TCL: Running FEP window  19: Lambda1 0.09999999999999969 Lambda2 0.049999999999999684 [dLambda -0.05 ]
TCL: Setting parameter firsttimestep to 0
TCL: Setting parameter alchLambda to 0.09999999999999969
Info: NONBONDED TABLE R-SQUARED SPACING: 0.0625
Info: NONBONDED TABLE SIZE: 705 POINTS
TCL: Setting parameter alchLambda2 to 0.049999999999999684
Info: NONBONDED TABLE R-SQUARED SPACING: 0.0625
Info: NONBONDED TABLE SIZE: 705 POINTS
TCL: Running for 1500000 steps
ETITLE: TS BOND ANGLE DIHED IMPRP ELECT VDW BOUNDARY MISC KINETIC TOTAL TEMP POTENTIAL TOTALAVG TEMPAVG PRESSURE GPRESSURE VOLUME PRESSAVG GPRESSAVG
ENERGY: 0 2.0275 5.1964 4.8104 0.0000 -10544.4247 1311.4194 0.0000 0.0000 1762.5982 -7458.3728 301.5912 -9220.9710 -7458.3728 301.5912 -1104.3575 -1008.7580 30148.5559 -1104.3575 -1008.7580
ENERGY: 300000 2.1185 7.4631 5.6588 0.0000 -10613.2195 1368.9128 0.0000 0.0000 1720.9845 -7508.0818 294.4709 -9229.0663 -7425.9066 299.0055 -396.3661 -411.3287 29640.5950 -590.9106 -520.2162
ENERGY: 600000 1.1203 10.8808 2.3882 0.0000 -10589.9317 1415.1344 0.0000 0.0000 1779.2052 -7381.2029 304.4328 -9160.4081 -7423.2577 300.3239 347.8193 374.0677 29547.4063 -420.6779 -354.5807
ENERGY: 900000 4.6341 9.6856 4.7120 0.0000 -10620.5769 1409.5134 0.0000 0.0000 1764.4497 -7427.5821 301.9080 -9192.0318 -7414.7625 301.0970 -186.4945 -158.1393 29752.1827 -270.1410 -206.2513
ENERGY: 1200000 5.8834 7.2504 2.4429 0.0000 -10671.3630 1421.3167 0.0000 0.0000 1760.8432 -7473.6265 301.2909 -9234.4696 -7416.6464 301.4579 -696.7668 -636.9480 30472.4488 -227.5769 -173.6779
ENERGY: 1500000 3.7827 6.0290 9.0073 0.0000 -10595.1696 1400.3447 0.0000 0.0000 1788.0819 -7387.9241 305.9516 -9176.0059 -7406.5420 302.0607 -437.1007 -370.7627 30169.4968 -217.9253 -156.5172
TCL: Running FEP window  20: Lambda1 0.049999999999999684 Lambda2 0.0    [dLambda -0.049999999999999684]
TCL: Setting parameter firsttimestep to 0
TCL: Setting parameter alchLambda to 0.049999999999999684
Info: NONBONDED TABLE R-SQUARED SPACING: 0.0625
Info: NONBONDED TABLE SIZE: 705 POINTS
TCL: Setting parameter alchLambda2 to 0.0
Info: NONBONDED TABLE R-SQUARED SPACING: 0.0625
Info: NONBONDED TABLE SIZE: 705 POINTS
TCL: Running for 1500000 steps
ETITLE: TS BOND ANGLE DIHED IMPRP ELECT VDW BOUNDARY MISC KINETIC TOTAL TEMP POTENTIAL TOTALAVG TEMPAVG PRESSURE GPRESSURE VOLUME PRESSAVG GPRESSAVG
ENERGY: 0 3.7827 6.0290 9.0073 0.0000 -10595.1706 1399.6143 0.0000 0.0000 1787.2428 -7389.4945 305.8081 -9176.7373 -7389.4945 305.8081 -458.8459 -375.2989 30169.4968 -458.8459 -375.2989
ENERGY: 300000 4.5803 9.9412 2.4996 0.0000 -10472.0167 1331.1250 0.0000 0.0000 1757.3107 -7366.5600 300.6865 -9123.8707 -7415.0065 301.1981 -985.4912 -954.2670 30595.1841 -498.1123 -431.3844
ENERGY: 600000 4.3046 5.5604 3.9745 0.0000 -10976.4636 1670.4950 0.0000 0.0000 1730.9469 -7561.1822 296.1755 -9292.1291 -7445.0344 300.0735 1457.6602 1541.8105 29982.7231 -138.4175 -78.1515
ENERGY: 900000 1.7451 5.5085 5.0548 0.0000 -10581.2343 1386.4158 0.0000 0.0000 1729.9855 -7452.5247 296.0110 -9182.5102 -7436.2373 299.6524 -570.9448 -489.3007 30105.7907 -237.3492 -177.4632
ENERGY: 1200000 4.6540 4.4998 11.5174 0.0000 -10565.1133 1410.7547 0.0000 0.0000 1795.1048 -7338.5826 307.1533 -9133.6874 -7440.4014 299.4103 -259.1217 -182.2557 30230.6623 -98.4892 -44.9378
ENERGY: 1500000 3.1614 14.2130 1.1409 0.0000 -10644.6984 1480.1100 0.0000 0.0000 1751.2902 -7394.7829 299.6563 -9146.0731 -7435.1846 299.5600 481.5898 560.2012 29859.7822 -57.6626 3.5258
TCL: Exiting due to exit command.
