Info: SIMULATION PARAMETERS:
Info: TIMESTEP               2
Info: NUMBER OF STEPS        0
Info: STEPS PER CYCLE        10
Info: PERIODIC CELL BASIS 1  30.9676 0 0
Info: PERIODIC CELL BASIS 2  0 31.3437 0
Info: PERIODIC CELL BASIS 3  0 0 31.6199
Info: PERIODIC CELL CENTER   0 0 0
Info: WRAPPING WATERS AROUND PERIODIC BOUNDARIES ON OUTPUT.
Info: WRAPPING ALL CLUSTERS AROUND PERIODIC BOUNDARIES ON OUTPUT.
Info: FIRST LDB TIMESTEP     50
Info: LAST LDB TIMESTEP     -1
Info: HOM BACKGROUND SCALING 1
Info: PME BACKGROUND SCALING 1
Info: MIN ATOMS PER PATCH    40
Info: EMPTY PATCH LOAD       40 ATOMS
Info: VELOCITY FILE          mobley_2178600_equil.vel
Info: CENTER OF MASS MOVING INITIALLY? NO
Info: DIELECTRIC             1
Info: EXCLUDE                SCALED ONE-FOUR
Info: 1-4 ELECTROSTATICS SCALED BY 0.833333
Info: MODIFIED 1-4 VDW PARAMETERS WILL BE USED
Info: DCD FILENAME           mobley_2178600_prod.dcd
Info: DCD FREQUENCY          100000
Info: DCD FIRST STEP         100000
Info: DCD FILE WILL CONTAIN UNIT CELL DATA
Info: XST FILENAME           mobley_2178600_prod.xst
Info: XST FREQUENCY          100000
Info: NO VELOCITY DCD OUTPUT
Info: NO FORCE DCD OUTPUT
Info: OUTPUT FILENAME        mobley_2178600_prod
Info: BINARY OUTPUT FILES WILL BE USED
Info: RESTART FILENAME       mobley_2178600_prod.restart
Info: RESTART FREQUENCY      100000
Info: BINARY RESTART FILES WILL BE USED
Info: CUTOFF                 9
Info: PAIRLIST DISTANCE      11
Info: PAIRLIST SHRINK RATE   0.01
Info: PAIRLIST GROW RATE     0.01
Info: PAIRLIST TRIGGER       0.3
Info: PAIRLISTS PER CYCLE    2
Info: PAIRLISTS ENABLED
Info: MARGIN                 2
Info: HYDROGEN GROUP CUTOFF  2.5
Info: PATCH DIMENSION        15.5
Info: ENERGY OUTPUT STEPS    100000
Info: ENERGY EVALUATION STEPS    100000
Info: OUTPUT ENERGY PRECISION 4
Info: CROSSTERM ENERGY INCLUDED IN DIHEDRAL
Info: TIMING OUTPUT STEPS    1000000
Info: PRESSURE OUTPUT STEPS  100000
Info: ALCHEMICAL FEP ON
Info: FEP CURRENT LAMBDA VALUE     0
Info: FEP COMPARISON LAMBDA VALUE  0.05
Info: FEP INTRA-ALCHEMICAL NON-BONDED INTERACTIONS WILL BE RETAINED
Info: FEP INTRA-ALCHEMICAL BONDED INTERACTIONS WILL BE RETAINED
Info: FEP VDW SHIFTING COEFFICIENT 5
Info: FEP ELEC. ACTIVE FOR ANNIHILATED PARTICLES BETWEEN LAMBDA = 0 AND LAMBDA = 0.5
Info: FEP ELEC. ACTIVE FOR EXNIHILATED PARTICLES BETWEEN LAMBDA = 0.5 AND LAMBDA = 1
Info: FEP VDW ACTIVE FOR ANNIHILATED PARTICLES BETWEEN LAMBDA = 0 AND LAMBDA = 1
Info: FEP VDW ACTIVE FOR EXNIHILATED PARTICLES BETWEEN LAMBDA = 0 AND LAMBDA = 1
Info: FEP BOND ACTIVE FOR ANNIHILATED PARTICLES BETWEEN LAMBDA = 1 AND LAMBDA = 1
Info: FEP BOND ACTIVE FOR EXNIHILATED PARTICLES BETWEEN LAMBDA = 0 AND LAMBDA = 0
Info: LANGEVIN DYNAMICS ACTIVE
Info: LANGEVIN TEMPERATURE   300
Info: LANGEVIN USING BBK INTEGRATOR
Info: LANGEVIN DAMPING COEFFICIENT IS 1 INVERSE PS
Info: LANGEVIN DYNAMICS APPLIED TO HYDROGENS
Info: LANGEVIN PISTON PRESSURE CONTROL ACTIVE
Info:        TARGET PRESSURE IS 1.01325 BAR
Info:     OSCILLATION PERIOD IS 50 FS
Info:             DECAY TIME IS 25 FS
Info:     PISTON TEMPERATURE IS 300 K
Info:       PRESSURE CONTROL IS GROUP-BASED
Info:    INITIAL STRAIN RATE IS 0.000200318 0.000200318 0.000200318
Info:       CELL FLUCTUATION IS ISOTROPIC
Info: PARTICLE MESH EWALD (PME) ACTIVE
Info: PME TOLERANCE               1e-06
Info: PME EWALD COEFFICIENT       0.348832
Info: PME INTERPOLATION ORDER     4
Info: PME GRID DIMENSIONS         32 32 32
Info: PME MAXIMUM GRID SPACING    1
Info: PME CALCULATION WILL BE PERFORMED ON GPU
Info: FULL ELECTROSTATIC EVALUATION FREQUENCY      2
Info: USING VERLET I (r-RESPA) MTS SCHEME.
Info: C1 SPLITTING OF LONG RANGE ELECTROSTATICS
Info: PLACING ATOMS IN PATCHES BY HYDROGEN GROUPS
Info: RIGID BONDS TO HYDROGEN : ALL
Info:         ERROR TOLERANCE : 1e-08
Info:          MAX ITERATIONS : 100
Info: RIGID WATER USING SETTLE ALGORITHM
Info: RANDOM NUMBER SEED     1743906338
Info: USE HYDROGEN BONDS?    NO
Info: Using AMBER format force field!
Info: AMBER PARM FILE        mobley_2178600.prmtop
Info: COORDINATE PDB         mobley_2178600.pdb
Info: Exclusions will be read from PARM file!
Info: SCNB (VDW SCALING)     2
Info: USING ARITHMETIC MEAN TO COMBINE L-J SIGMA PARAMETERS
Info: BINARY COORDINATES     mobley_2178600_equil.coor
Info: SUMMARY OF PARAMETERS:
Info: 6 BONDS
Info: 7 ANGLES
Info:   7 HARMONIC
Info:   0 COSINE-BASED
Info: 8 DIHEDRAL
Info: 0 IMPROPER
Info: 0 CROSSTERM
Info: 0 VDW
Info: 21 VDW_PAIRS
Info: 0 NBTHOLE_PAIRS
Info: To read alchdata from file: mobley_2178600.pdb
Info: To read alchflag data from column: 5
Info: STRUCTURE SUMMARY:
Info: 2960 ATOMS
Info: 2959 BONDS
Info: 30 ANGLES
Info: 42 DIHEDRALS
Info: 0 IMPROPERS
Info: 0 CROSSTERMS
Info: 3025 EXCLUSIONS
Info: 2954 RIGID BONDS
Info: ALCH: 0 ATOMS TO DISAPPEAR IN FINAL STATE
Info: ALCH: 17 ATOMS TO APPEAR IN FINAL STATE
Info: 5926 DEGREES OF FREEDOM
Info: 987 HYDROGEN GROUPS
Info: 4 ATOMS IN LARGEST HYDROGEN GROUP
Info: 987 MIGRATION GROUPS
Info: 4 ATOMS IN LARGEST MIGRATION GROUP
Info: TOTAL MASS = 17780.3 amu
Info: TOTAL CHARGE = -9.99868e-05 e
Info: MASS DENSITY = 0.96201 g/cm^3
Info: ATOM DENSITY = 0.0964436 atoms/A^3
Info: ADDED 0 IMPLICIT EXCLUSIONS
Info: NONBONDED TABLE R-SQUARED SPACING: 0.0625
Info: NONBONDED TABLE SIZE: 705 POINTS
Info: REMOVING COM VELOCITY -0.100797 0.207921 -0.259309
Info: Use 3D box decompostion in PME FFT.
Info: Updated CUDA force table with 4096 elements.
Info: Updated CUDA LJ table with 6 x 6 elements.
Info: Found 20 unique exclusion lists needing 52 bytes
TCL: Running for 1500000 steps
ETITLE: TS BOND ANGLE DIHED IMPRP ELECT VDW BOUNDARY MISC KINETIC TOTAL TEMP POTENTIAL TOTALAVG TEMPAVG PRESSURE GPRESSURE VOLUME PRESSAVG GPRESSAVG
ENERGY: 0 0.7080 9.7891 2.7648 0.0000 -10877.3594 1545.7867 0.0000 0.0000 1811.6951 -7506.6158 307.6903 -9318.3109 -7506.6158 307.6903 456.3048 547.8899 30691.5088 456.3048 547.8899
ENERGY: 300000 1.5717 9.0638 2.9775 0.0000 -10685.1700 1395.9360 0.0000 0.0000 1754.3264 -7521.2945 297.9471 -9275.6209 -7475.9672 302.7596 -577.2710 -469.3406 30248.2021 -259.8773 -209.7356
ENERGY: 600000 1.8955 5.6100 2.9334 0.0000 -10704.9652 1442.7648 0.0000 0.0000 1783.4126 -7468.3489 302.8870 -9251.7616 -7467.3789 300.8470 -239.7439 -226.5372 30637.8378 -106.1629 -56.6385
ENERGY: 900000 3.6810 8.7679 2.8522 0.0000 -10592.1249 1341.9450 0.0000 0.0000 1751.7279 -7483.1510 297.5058 -9234.8788 -7465.6189 300.5755 -990.4211 -912.0400 30800.9261 -128.1024 -71.4041
ENERGY: 1200000 0.4377 7.9157 3.9772 0.0000 -10756.2264 1454.9504 0.0000 0.0000 1764.1701 -7524.7753 299.6189 -9288.9454 -7469.8189 300.2526 -11.3315 43.3292 30318.1754 -84.7033 -24.7793
ENERGY: 1500000 0.5899 7.7701 3.6801 0.0000 -10822.5872 1504.2376 0.0000 0.0000 1808.8468 -7497.4628 307.2066 -9306.3096 -7467.4072 300.8567 582.3005 629.1613 30058.6202 -72.3759 -18.4823
TCL: Running FEP window   2: Lambda1 0.05   Lambda2 0.1    [dLambda 0.05  ]
TCL: Setting parameter firsttimestep to 0
TCL: Setting parameter alchLambda to 0.05
Info: NONBONDED TABLE R-SQUARED SPACING: 0.0625
Info: NONBONDED TABLE SIZE: 705 POINTS
TCL: Setting parameter alchLambda2 to 0.1
Info: NONBONDED TABLE R-SQUARED SPACING: 0.0625
Info: NONBONDED TABLE SIZE: 705 POINTS
TCL: Running for 1500000 steps
ETITLE: TS BOND ANGLE DIHED IMPRP ELECT VDW BOUNDARY MISC KINETIC TOTAL TEMP POTENTIAL TOTALAVG TEMPAVG PRESSURE GPRESSURE VOLUME PRESSAVG GPRESSAVG
ENERGY: 0 0.5899 7.7700 3.6801 0.0000 -10822.5888 1505.1741 0.0000 0.0000 1807.9484 -7497.4263 307.0540 -9305.3746 -7497.4263 307.0540 541.9614 633.8573 30058.6202 541.9614 633.8573
ENERGY: 300000 0.2080 8.7086 2.6915 0.0000 -10749.5435 1430.6158 0.0000 0.0000 1777.6396 -7529.6799 301.9065 -9307.3195 -7509.5225 299.2710 -250.8776 -186.6004 30331.4618 -123.4740 -32.5146
ENERGY: 600000 2.4569 5.8017 4.9721 0.0000 -10706.7173 1488.2427 0.0000 0.0000 1711.3435 -7493.9003 290.6471 -9205.2438 -7498.4263 298.3713 154.0692 279.3177 30482.1536 -162.7200 -77.2353
ENERGY: 900000 3.2786 8.8356 3.7631 0.0000 -10882.3784 1477.7620 0.0000 0.0000 1729.5614 -7659.1777 293.7411 -9388.7391 -7511.0534 298.3916 106.0700 224.2915 29589.0125 -27.4417 69.1359
ENERGY: 1200000 2.5322 7.5734 1.8433 0.0000 -10738.6924 1403.1335 0.0000 0.0000 1757.8426 -7565.7673 298.5443 -9323.6100 -7507.0600 299.0477 -320.6405 -175.6973 29926.9401 -33.2318 63.8040
ENERGY: 1500000 1.0586 6.9799 3.9756 0.0000 -10820.5626 1457.8518 0.0000 0.0000 1785.5954 -7565.1013 303.2577 -9350.6967 -7496.9448 300.1459 31.7154 77.9335 30157.5709 -70.7492 22.7042
TCL: Running FEP window   3: Lambda1 0.1    Lambda2 0.15000000000000002 [dLambda 0.05000000000000002]
TCL: Setting parameter firsttimestep to 0
TCL: Setting parameter alchLambda to 0.1
Info: NONBONDED TABLE R-SQUARED SPACING: 0.0625
Info: NONBONDED TABLE SIZE: 705 POINTS
TCL: Setting parameter alchLambda2 to 0.15000000000000002
Info: NONBONDED TABLE R-SQUARED SPACING: 0.0625
Info: NONBONDED TABLE SIZE: 705 POINTS
TCL: Running for 1500000 steps
ETITLE: TS BOND ANGLE DIHED IMPRP ELECT VDW BOUNDARY MISC KINETIC TOTAL TEMP POTENTIAL TOTALAVG TEMPAVG PRESSURE GPRESSURE VOLUME PRESSAVG GPRESSAVG
ENERGY: 0 1.0586 6.9799 3.9756 0.0000 -10820.5630 1459.5872 0.0000 0.0000 1784.7140 -7564.2477 303.1080 -9348.9617 -7564.2477 303.1080 -3.5144 88.3339 30157.5709 -3.5144 88.3339
ENERGY: 300000 3.1596 11.3811 2.4142 0.0000 -10649.0229 1457.5232 0.0000 0.0000 1769.0116 -7405.5332 300.4412 -9174.5448 -7495.7388 303.4221 320.7667 413.0341 30221.8413 -15.2230 71.0883
ENERGY: 600000 3.3471 9.9004 4.5595 0.0000 -10635.1914 1415.4040 0.0000 0.0000 1724.3477 -7477.6328 292.8556 -9201.9804 -7498.7601 300.2890 -297.5168 -156.9469 30422.8951 100.0266 184.5583
ENERGY: 900000 2.1152 8.1341 2.5583 0.0000 -10864.0158 1491.9244 0.0000 0.0000 1821.0557 -7538.2282 309.2801 -9359.2839 -7497.8700 301.8589 139.2660 164.8085 30186.4569 64.7668 141.7700
ENERGY: 1200000 2.8227 9.2749 6.1723 0.0000 -10659.7070 1453.6282 0.0000 0.0000 1761.5849 -7426.2240 299.1798 -9187.8089 -7490.1482 302.0457 174.1220 218.8606 30211.1318 0.9506 70.7849
ENERGY: 1500000 1.0389 8.5876 4.2536 0.0000 -10850.3340 1558.6421 0.0000 0.0000 1751.4872 -7526.3247 297.4649 -9277.8119 -7498.5029 300.9419 974.8241 1047.7284 29902.2273 9.3225 76.1575
TCL: Running FEP window   4: Lambda1 0.15000000000000002 Lambda2 0.2    [dLambda 0.04999999999999999]
TCL: Setting parameter firsttimestep to 0
TCL: Setting parameter alchLambda to 0.15000000000000002
Info: NONBONDED TABLE R-SQUARED SPACING: 0.0625
Info: NONBONDED TABLE SIZE: 705 POINTS
TCL: Setting parameter alchLambda2 to 0.2
Info: NONBONDED TABLE R-SQUARED SPACING: 0.0625
Info: NONBONDED TABLE SIZE: 705 POINTS
TCL: Running for 1500000 steps
ETITLE: TS BOND ANGLE DIHED IMPRP ELECT VDW BOUNDARY MISC KINETIC TOTAL TEMP POTENTIAL TOTALAVG TEMPAVG PRESSURE GPRESSURE VOLUME PRESSAVG GPRESSAVG
ENERGY: 0 1.0389 8.5876 4.2536 0.0000 -10850.3340 1561.6767 0.0000 0.0000 1750.6203 -7524.1570 297.3177 -9274.7773 -7524.1570 297.3177 970.2632 1063.5525 29902.2273 970.2632 1063.5525
ENERGY: 300000 1.8992 9.3114 2.6381 0.0000 -10724.7649 1492.0387 0.0000 0.0000 1746.0971 -7472.7804 296.5495 -9218.8774 -7510.7459 298.7015 372.2920 339.5044 30586.4299 514.2962 561.7222
ENERGY: 600000 1.4552 6.6791 2.6575 0.0000 -10746.9115 1438.5750 0.0000 0.0000 1747.7567 -7549.7881 296.8313 -9297.5448 -7529.2355 298.2148 -96.3997 -92.8073 30229.3389 145.6423 189.6367
ENERGY: 900000 1.1089 7.4420 2.3338 0.0000 -10799.9273 1481.1322 0.0000 0.0000 1810.4912 -7497.4191 307.4859 -9307.9103 -7501.5516 300.3019 37.2213 184.5104 30268.9080 189.5121 249.9816
ENERGY: 1200000 2.0388 3.4792 1.8675 0.0000 -10639.6699 1345.2745 0.0000 0.0000 1783.8935 -7503.1164 302.9686 -9287.0098 -7500.8544 299.5752 -689.1662 -644.8874 30428.3374 80.7071 141.2449
ENERGY: 1500000 2.2873 9.5086 4.6870 0.0000 -10662.8420 1383.6750 0.0000 0.0000 1734.2900 -7528.3941 294.5442 -9262.6841 -7492.1387 299.2419 -930.2208 -821.5871 30862.4728 17.3713 81.6077
TCL: Running FEP window   5: Lambda1 0.2    Lambda2 0.25   [dLambda 0.04999999999999999]
TCL: Setting parameter firsttimestep to 0
TCL: Setting parameter alchLambda to 0.2
Info: NONBONDED TABLE R-SQUARED SPACING: 0.0625
Info: NONBONDED TABLE SIZE: 705 POINTS
TCL: Setting parameter alchLambda2 to 0.25
Info: NONBONDED TABLE R-SQUARED SPACING: 0.0625
Info: NONBONDED TABLE SIZE: 705 POINTS
TCL: Running for 1500000 steps
ETITLE: TS BOND ANGLE DIHED IMPRP ELECT VDW BOUNDARY MISC KINETIC TOTAL TEMP POTENTIAL TOTALAVG TEMPAVG PRESSURE GPRESSURE VOLUME PRESSAVG GPRESSAVG
ENERGY: 0 2.2873 9.5086 4.6870 0.0000 -10662.8428 1386.0790 0.0000 0.0000 1733.3554 -7526.9255 294.3855 -9260.2808 -7526.9255 294.3855 -899.0385 -812.0498 30862.4728 -899.0385 -812.0498
ENERGY: 300000 2.8963 9.1633 6.2065 0.0000 -10511.8305 1332.4097 0.0000 0.0000 1755.2776 -7405.8770 298.1086 -9161.1546 -7493.0389 296.9635 -818.6246 -777.1490 30732.6974 -431.9924 -382.8615
ENERGY: 600000 1.4977 11.7115 3.4937 0.0000 -10695.7157 1468.7331 0.0000 0.0000 1752.8067 -7457.4731 297.6890 -9210.2797 -7497.1919 297.0193 72.7190 148.5635 30535.0092 -251.2312 -210.6025
ENERGY: 900000 1.2921 8.7590 4.0180 0.0000 -10685.4925 1411.4678 0.0000 0.0000 1807.6578 -7452.2979 307.0046 -9259.9557 -7481.3576 300.1678 -449.0006 -314.3364 30524.8884 -211.8112 -165.6504
ENERGY: 1200000 2.2121 11.7519 2.7903 0.0000 -10792.0337 1565.0392 0.0000 0.0000 1848.1744 -7362.0658 313.8858 -9210.2402 -7471.5638 301.7710 1210.0109 1258.0638 29999.8491 -59.5649 -14.3894
ENERGY: 1500000 1.6116 4.5918 1.9622 0.0000 -10420.3329 1343.5339 0.0000 0.0000 1764.8185 -7303.8149 299.7290 -9068.6334 -7464.3910 301.1639 -474.4913 -373.6915 30973.7309 -172.7946 -121.1161
TCL: Running FEP window   6: Lambda1 0.25   Lambda2 0.3    [dLambda 0.04999999999999999]
TCL: Setting parameter firsttimestep to 0
TCL: Setting parameter alchLambda to 0.25
Info: NONBONDED TABLE R-SQUARED SPACING: 0.0625
Info: NONBONDED TABLE SIZE: 705 POINTS
TCL: Setting parameter alchLambda2 to 0.3
Info: NONBONDED TABLE R-SQUARED SPACING: 0.0625
Info: NONBONDED TABLE SIZE: 705 POINTS
TCL: Running for 1500000 steps
ETITLE: TS BOND ANGLE DIHED IMPRP ELECT VDW BOUNDARY MISC KINETIC TOTAL TEMP POTENTIAL TOTALAVG TEMPAVG PRESSURE GPRESSURE VOLUME PRESSAVG GPRESSAVG
ENERGY: 0 1.6116 4.5918 1.9622 0.0000 -10420.3328 1343.6765 0.0000 0.0000 1763.9464 -7304.5443 299.5809 -9068.4907 -7304.5443 299.5809 -468.8189 -370.7996 30973.7309 -468.8189 -370.7996
ENERGY: 300000 1.3404 9.2301 4.7040 0.0000 -10690.9723 1415.4041 0.0000 0.0000 1767.8821 -7492.4118 300.2493 -9260.2938 -7444.0067 298.7615 -126.2346 -70.8931 30096.0081 -178.0767 -115.2980
ENERGY: 600000 1.8270 7.7775 2.2923 0.0000 -10682.3565 1418.9331 0.0000 0.0000 1750.0023 -7501.5244 297.2127 -9251.5267 -7463.7337 299.3389 -431.1250 -363.5915 30609.7245 -224.9846 -161.9402
ENERGY: 900000 2.1717 6.8390 2.6875 0.0000 -10693.7274 1430.2816 0.0000 0.0000 1756.5103 -7495.2373 298.3180 -9251.7476 -7470.9012 299.7647 -261.4569 -281.5948 30552.3979 -130.5635 -76.4613
ENERGY: 1200000 3.0282 8.4475 1.9761 0.0000 -10644.7297 1360.0852 0.0000 0.0000 1768.8522 -7502.3405 300.4141 -9271.1927 -7465.5702 301.1393 -677.9136 -587.1538 30368.8082 -250.9789 -191.3380
ENERGY: 1500000 0.7033 8.5591 2.4219 0.0000 -10836.9502 1472.0642 0.0000 0.0000 1831.2424 -7521.9594 311.0102 -9353.2018 -7464.3009 301.4547 356.2617 403.2772 29819.0509 -220.2236 -160.0376
TCL: Running FEP window   7: Lambda1 0.3    Lambda2 0.35   [dLambda 0.04999999999999999]
TCL: Setting parameter firsttimestep to 0
TCL: Setting parameter alchLambda to 0.3
Info: NONBONDED TABLE R-SQUARED SPACING: 0.0625
Info: NONBONDED TABLE SIZE: 705 POINTS
TCL: Setting parameter alchLambda2 to 0.35
Info: NONBONDED TABLE R-SQUARED SPACING: 0.0625
Info: NONBONDED TABLE SIZE: 705 POINTS
TCL: Running for 1500000 steps
ETITLE: TS BOND ANGLE DIHED IMPRP ELECT VDW BOUNDARY MISC KINETIC TOTAL TEMP POTENTIAL TOTALAVG TEMPAVG PRESSURE GPRESSURE VOLUME PRESSAVG GPRESSAVG
ENERGY: 0 0.7033 8.5591 2.4219 0.0000 -10836.9513 1471.9097 0.0000 0.0000 1830.3704 -7522.9868 310.8621 -9353.3572 -7522.9868 310.8621 318.3961 407.4986 29819.0509 318.3961 407.4986
ENERGY: 300000 0.5386 11.7620 2.9132 0.0000 -10820.5274 1481.0439 0.0000 0.0000 1770.1198 -7554.1500 300.6294 -9324.2698 -7461.8043 307.1282 97.4764 201.6342 30277.1629 1.6536 46.2695
ENERGY: 600000 1.7972 5.7532 2.5001 0.0000 -10761.1438 1476.0085 0.0000 0.0000 1726.2604 -7548.8244 293.1805 -9275.0847 -7467.3493 304.7742 239.1638 324.3742 30257.8068 -220.8705 -156.7353
ENERGY: 900000 1.2702 9.2257 2.7443 0.0000 -10695.9213 1448.1949 0.0000 0.0000 1755.0590 -7479.4272 298.0715 -9234.4862 -7465.4133 302.2182 -2.6208 82.5984 30387.2776 -182.3065 -117.7640
ENERGY: 1200000 2.5192 8.6634 2.0325 0.0000 -10735.4606 1394.5248 0.0000 0.0000 1792.1677 -7535.5529 304.3739 -9327.7206 -7470.8889 302.3321 -680.4078 -543.0330 30353.6231 -194.6905 -119.3178
ENERGY: 1500000 2.6108 3.7880 1.8647 0.0000 -10620.1947 1445.0036 0.0000 0.0000 1816.6670 -7350.2607 308.5347 -9166.9277 -7461.4828 302.0103 150.3614 228.3992 30446.2139 -209.1215 -133.2648
TCL: Running FEP window   8: Lambda1 0.35   Lambda2 0.39999999999999997 [dLambda 0.04999999999999999]
TCL: Setting parameter firsttimestep to 0
TCL: Setting parameter alchLambda to 0.35
Info: NONBONDED TABLE R-SQUARED SPACING: 0.0625
Info: NONBONDED TABLE SIZE: 705 POINTS
TCL: Setting parameter alchLambda2 to 0.39999999999999997
Info: NONBONDED TABLE R-SQUARED SPACING: 0.0625
Info: NONBONDED TABLE SIZE: 705 POINTS
TCL: Running for 1500000 steps
ETITLE: TS BOND ANGLE DIHED IMPRP ELECT VDW BOUNDARY MISC KINETIC TOTAL TEMP POTENTIAL TOTALAVG TEMPAVG PRESSURE GPRESSURE VOLUME PRESSAVG GPRESSAVG
ENERGY: 0 2.6108 3.7880 1.8647 0.0000 -10620.1954 1444.9992 0.0000 0.0000 1815.7756 -7351.1572 308.3833 -9166.9328 -7351.1572 308.3833 155.2109 237.4772 30446.2139 155.2109 237.4772
ENERGY: 300000 1.5393 5.3338 1.8135 0.0000 -10708.5507 1430.0364 0.0000 0.0000 1726.1411 -7543.6866 293.1602 -9269.8277 -7431.7913 303.2738 -97.1539 -8.8036 30445.9667 -24.2122 43.3114
ENERGY: 600000 1.3002 8.4809 2.4937 0.0000 -10677.5090 1416.1359 0.0000 0.0000 1756.7706 -7492.3277 298.3622 -9249.0983 -7446.3686 303.4549 -147.9074 -73.4364 30182.7440 -27.6553 34.0168
ENERGY: 900000 2.5639 8.8807 3.1152 0.0000 -10612.7618 1396.7301 0.0000 0.0000 1787.0222 -7414.4495 303.5000 -9201.4718 -7461.8866 302.1229 -367.7602 -244.9105 30419.8885 -65.0563 -8.2459
ENERGY: 1200000 6.7995 5.7492 1.7823 0.0000 -11024.2899 1623.9197 0.0000 0.0000 1771.5513 -7614.4879 300.8725 -9386.0392 -7470.2392 301.2045 935.6242 1010.8655 30174.8834 13.6491 71.1304
ENERGY: 1500000 0.8755 8.2492 2.4146 0.0000 -10644.6355 1400.4313 0.0000 0.0000 1740.7553 -7491.9095 295.6422 -9232.6648 -7468.9712 301.0902 -248.6899 -242.5336 30591.4409 -28.8619 26.9192
TCL: Running FEP window   9: Lambda1 0.39999999999999997 Lambda2 0.44999999999999996 [dLambda 0.04999999999999999]
TCL: Setting parameter firsttimestep to 0
TCL: Setting parameter alchLambda to 0.39999999999999997
Info: NONBONDED TABLE R-SQUARED SPACING: 0.0625
Info: NONBONDED TABLE SIZE: 705 POINTS
TCL: Setting parameter alchLambda2 to 0.44999999999999996
Info: NONBONDED TABLE R-SQUARED SPACING: 0.0625
Info: NONBONDED TABLE SIZE: 705 POINTS
TCL: Running for 1500000 steps
ETITLE: TS BOND ANGLE DIHED IMPRP ELECT VDW BOUNDARY MISC KINETIC TOTAL TEMP POTENTIAL TOTALAVG TEMPAVG PRESSURE GPRESSURE VOLUME PRESSAVG GPRESSAVG
ENERGY: 0 0.8755 8.2492 2.4146 0.0000 -10644.6345 1400.4553 0.0000 0.0000 1739.9031 -7492.7366 295.4975 -9232.6397 -7492.7366 295.4975 -316.7207 -237.8826 30591.4409 -316.7207 -237.8826
ENERGY: 300000 2.0686 9.7524 2.3179 0.0000 -10868.6415 1584.2880 0.0000 0.0000 1797.7757 -7472.4388 305.3263 -9270.2145 -7492.5054 297.5072 911.9453 977.0925 30556.5675 88.0932 151.6198
ENERGY: 600000 2.4209 9.7358 2.0259 0.0000 -10590.0627 1394.6420 0.0000 0.0000 1723.6322 -7457.6058 292.7341 -9181.2380 -7495.5600 296.7889 -135.0504 -78.3370 30695.7864 258.8661 303.8745
ENERGY: 900000 0.6788 8.5533 2.1844 0.0000 -10714.1694 1418.6385 0.0000 0.0000 1854.6565 -7429.4578 314.9867 -9284.1144 -7485.1719 300.6300 21.8402 20.9495 29944.5520 204.6569 244.6897
ENERGY: 1200000 1.5715 6.9404 1.3962 0.0000 -10796.3915 1473.8244 0.0000 0.0000 1718.3806 -7594.2784 291.8422 -9312.6591 -7488.5006 300.2688 125.8016 211.7649 30143.1317 165.4602 206.6061
ENERGY: 1500000 1.6003 8.3722 4.0134 0.0000 -10709.1195 1452.1647 0.0000 0.0000 1775.4825 -7467.4865 301.5401 -9242.9690 -7482.3354 300.6677 -81.5512 -33.7953 30795.2861 125.6002 173.3555
TCL: Running FEP window  10: Lambda1 0.44999999999999996 Lambda2 0.49999999999999994 [dLambda 0.04999999999999999]
TCL: Setting parameter firsttimestep to 0
TCL: Setting parameter alchLambda to 0.44999999999999996
Info: NONBONDED TABLE R-SQUARED SPACING: 0.0625
Info: NONBONDED TABLE SIZE: 705 POINTS
TCL: Setting parameter alchLambda2 to 0.49999999999999994
Info: NONBONDED TABLE R-SQUARED SPACING: 0.0625
Info: NONBONDED TABLE SIZE: 705 POINTS
TCL: Running for 1500000 steps
ETITLE: TS BOND ANGLE DIHED IMPRP ELECT VDW BOUNDARY MISC KINETIC TOTAL TEMP POTENTIAL TOTALAVG TEMPAVG PRESSURE GPRESSURE VOLUME PRESSAVG GPRESSAVG
ENERGY: 0 1.6003 8.3722 4.0134 0.0000 -10709.1197 1452.4913 0.0000 0.0000 1774.6147 -7468.0278 301.3928 -9242.6425 -7468.0278 301.3928 -117.6444 -27.8544 30795.2861 -117.6444 -27.8544
ENERGY: 300000 0.8374 6.6327 1.7947 0.0000 -10661.6944 1331.7631 0.0000 0.0000 1795.0755 -7525.5911 304.8677 -9320.6666 -7465.4587 302.4223 -846.7265 -795.5820 30142.2306 -326.6913 -282.8272
ENERGY: 600000 2.8141 3.8478 4.9526 0.0000 -10657.3042 1428.4074 0.0000 0.0000 1830.3114 -7386.9709 310.8520 -9217.2823 -7480.3067 302.9166 -87.9417 -64.3316 30645.7424 -282.6429 -237.1545
ENERGY: 900000 2.7435 5.2044 1.9061 0.0000 -10669.4494 1392.7926 0.0000 0.0000 1801.9508 -7464.8520 306.0354 -9266.8028 -7476.6556 302.3580 -396.4927 -239.2138 30041.1523 -219.0721 -157.0202
ENERGY: 1200000 1.3135 6.9781 2.7091 0.0000 -10930.3919 1605.0857 0.0000 0.0000 1847.7846 -7466.5209 313.8196 -9314.3055 -7478.1779 303.4799 1495.1327 1486.3926 30105.4701 -47.7664 7.6596
ENERGY: 1500000 1.1803 6.5940 4.0442 0.0000 -10789.6180 1492.2578 0.0000 0.0000 1752.2256 -7533.3161 297.5903 -9285.5417 -7484.2123 302.7254 218.7475 265.1797 30490.6273 -40.0655 22.4796
TCL: Running FEP window  11: Lambda1 0.49999999999999994 Lambda2 0.5499999999999999 [dLambda 0.04999999999999999]
TCL: Setting parameter firsttimestep to 0
TCL: Setting parameter alchLambda to 0.49999999999999994
Info: NONBONDED TABLE R-SQUARED SPACING: 0.0625
Info: NONBONDED TABLE SIZE: 705 POINTS
TCL: Setting parameter alchLambda2 to 0.5499999999999999
Info: NONBONDED TABLE R-SQUARED SPACING: 0.0625
Info: NONBONDED TABLE SIZE: 705 POINTS
TCL: Running for 1500000 steps
ETITLE: TS BOND ANGLE DIHED IMPRP ELECT VDW BOUNDARY MISC KINETIC TOTAL TEMP POTENTIAL TOTALAVG TEMPAVG PRESSURE GPRESSURE VOLUME PRESSAVG GPRESSAVG
ENERGY: 0 1.1803 6.5940 4.0442 0.0000 -10789.6180 1491.9832 0.0000 0.0000 1751.3477 -7534.4687 297.4412 -9285.8163 -7534.4687 297.4412 198.9258 271.4166 30490.6273 198.9258 271.4166
ENERGY: 300000 0.9693 8.4829 2.6115 0.0000 -10656.3499 1359.8880 0.0000 0.0000 1776.4419 -7507.9563 301.7031 -9284.3982 -7495.1493 299.1413 -702.4142 -591.6172 30278.3370 -276.4524 -193.0912
ENERGY: 600000 1.3032 8.4620 3.4947 0.0000 -10832.7003 1487.8449 0.0000 0.0000 1804.1573 -7527.4382 306.4101 -9331.5955 -7512.4338 300.9467 142.2253 163.9035 30379.7360 -34.5895 27.4350
ENERGY: 900000 1.3073 4.3095 2.7811 0.0000 -10658.7370 1398.6422 0.0000 0.0000 1722.3735 -7529.3234 292.5203 -9251.6969 -7508.7549 301.3756 -456.1889 -380.2229 30506.3884 -56.4705 6.5621
ENERGY: 1200000 0.7323 7.4973 3.3666 0.0000 -10727.4858 1445.7987 0.0000 0.0000 1823.6564 -7446.4344 309.7218 -9270.0909 -7511.4325 300.6452 242.4660 326.7268 30296.2452 35.9661 96.6823
ENERGY: 1500000 3.6619 11.6120 2.1410 0.0000 -10788.4025 1469.8943 0.0000 0.0000 1718.3508 -7582.7425 291.8371 -9301.0933 -7514.7689 299.5448 79.2909 109.6599 30269.9339 67.1125 121.9537
TCL: Running FEP window  12: Lambda1 0.5499999999999999 Lambda2 0.6    [dLambda 0.050000000000000044]
TCL: Setting parameter firsttimestep to 0
TCL: Setting parameter alchLambda to 0.5499999999999999
Info: NONBONDED TABLE R-SQUARED SPACING: 0.0625
Info: NONBONDED TABLE SIZE: 705 POINTS
TCL: Setting parameter alchLambda2 to 0.6
Info: NONBONDED TABLE R-SQUARED SPACING: 0.0625
Info: NONBONDED TABLE SIZE: 705 POINTS
TCL: Running for 1500000 steps
ETITLE: TS BOND ANGLE DIHED IMPRP ELECT VDW BOUNDARY MISC KINETIC TOTAL TEMP POTENTIAL TOTALAVG TEMPAVG PRESSURE GPRESSURE VOLUME PRESSAVG GPRESSAVG
ENERGY: 0 3.6619 11.6120 2.1410 0.0000 -10788.4369 1470.2079 0.0000 0.0000 1717.4432 -7583.3710 291.6830 -9300.8142 -7583.3710 291.6830 41.4876 121.9422 30269.9339 41.4876 121.9422
ENERGY: 300000 2.6153 7.3893 1.9801 0.0000 -10752.1396 1498.5650 0.0000 0.0000 1773.9525 -7467.6375 301.2803 -9241.5900 -7513.6310 300.1738 687.8272 765.3073 30190.0577 -43.8867 2.5736
ENERGY: 600000 0.3259 6.2504 3.0404 0.0000 -10793.5114 1475.2408 0.0000 0.0000 1754.8760 -7553.7778 298.0404 -9308.6538 -7509.8989 299.6241 242.0664 267.4525 30261.1603 -11.6904 34.5179
ENERGY: 900000 0.8346 7.3847 2.6799 0.0000 -10667.3507 1417.1002 0.0000 0.0000 1767.3344 -7472.0169 300.1563 -9239.3513 -7488.6311 301.8869 -304.9108 -231.1566 30770.7895 -48.1499 6.5655
ENERGY: 1200000 0.9073 7.5876 2.4608 0.0000 -10559.1945 1361.3826 0.0000 0.0000 1731.2051 -7455.6511 294.0203 -9186.8562 -7486.9184 301.5040 -660.6579 -574.1722 30831.3339 -91.2610 -42.9667
ENERGY: 1500000 0.8749 9.3842 2.0884 0.0000 -10655.8829 1446.2899 0.0000 0.0000 1745.8751 -7451.3705 296.5117 -9197.2456 -7483.7999 300.9604 62.3276 166.9019 30771.9986 -99.6762 -47.9507
TCL: Running FEP window  13: Lambda1 0.6    Lambda2 0.65   [dLambda 0.050000000000000044]
TCL: Setting parameter firsttimestep to 0
TCL: Setting parameter alchLambda to 0.6
Info: NONBONDED TABLE R-SQUARED SPACING: 0.0625
Info: NONBONDED TABLE SIZE: 705 POINTS
TCL: Setting parameter alchLambda2 to 0.65
Info: NONBONDED TABLE R-SQUARED SPACING: 0.0625
Info: NONBONDED TABLE SIZE: 705 POINTS
TCL: Running for 1500000 steps
ETITLE: TS BOND ANGLE DIHED IMPRP ELECT VDW BOUNDARY MISC KINETIC TOTAL TEMP POTENTIAL TOTALAVG TEMPAVG PRESSURE GPRESSURE VOLUME PRESSAVG GPRESSAVG
ENERGY: 0 0.8749 9.3842 2.0884 0.0000 -10655.7792 1446.4026 0.0000 0.0000 1744.9576 -7452.0715 296.3559 -9197.0291 -7452.0715 296.3559 103.3786 177.2243 30771.9986 103.3786 177.2243
ENERGY: 300000 1.0633 9.2014 2.8101 0.0000 -10723.0013 1436.9989 0.0000 0.0000 1752.6963 -7520.2313 297.6702 -9272.9276 -7493.7161 300.0207 60.3566 165.5580 30200.0484 25.9359 104.0544
ENERGY: 600000 0.8161 4.3719 4.5539 0.0000 -10626.1905 1363.3948 0.0000 0.0000 1757.1225 -7495.9313 298.4220 -9253.0537 -7494.7960 300.4558 -544.6889 -451.0120 30562.5277 -84.2914 -14.9119
ENERGY: 900000 4.3181 5.4839 2.3551 0.0000 -10669.9023 1352.3970 0.0000 0.0000 1799.7920 -7505.5563 305.6688 -9305.3483 -7507.9954 299.7284 -947.0512 -898.3127 30625.4890 -261.8709 -196.6595
ENERGY: 1200000 0.4920 7.0734 3.0243 0.0000 -10836.0380 1506.3205 0.0000 0.0000 1775.9986 -7543.1292 301.6278 -9319.1278 -7510.1392 298.7037 452.4364 420.5119 30612.0534 -233.3991 -174.6573
ENERGY: 1500000 0.9041 9.5190 2.6897 0.0000 -10504.4862 1343.0601 0.0000 0.0000 1774.8456 -7373.4678 301.4320 -9148.3133 -7503.1442 298.9952 -725.9879 -703.0800 31092.2533 -269.8746 -213.0344
TCL: Running FEP window  14: Lambda1 0.65   Lambda2 0.7000000000000001 [dLambda 0.050000000000000044]
TCL: Setting parameter firsttimestep to 0
TCL: Setting parameter alchLambda to 0.65
Info: NONBONDED TABLE R-SQUARED SPACING: 0.0625
Info: NONBONDED TABLE SIZE: 705 POINTS
TCL: Setting parameter alchLambda2 to 0.7000000000000001
Info: NONBONDED TABLE R-SQUARED SPACING: 0.0625
Info: NONBONDED TABLE SIZE: 705 POINTS
TCL: Running for 1500000 steps
ETITLE: TS BOND ANGLE DIHED IMPRP ELECT VDW BOUNDARY MISC KINETIC TOTAL TEMP POTENTIAL TOTALAVG TEMPAVG PRESSURE GPRESSURE VOLUME PRESSAVG GPRESSAVG
ENERGY: 0 0.9041 9.5190 2.6897 0.0000 -10504.6434 1343.0232 0.0000 0.0000 1773.9556 -7374.5518 301.2808 -9148.5074 -7374.5518 301.2808 -778.1999 -694.6629 31092.2533 -778.1999 -694.6629
ENERGY: 300000 0.9170 6.9693 4.5978 0.0000 -10708.2257 1486.1158 0.0000 0.0000 1787.9859 -7421.6399 303.6637 -9209.6258 -7421.5812 302.2578 590.7969 676.2942 30183.8365 -103.9059 -34.2290
ENERGY: 600000 1.7265 7.2666 1.8404 0.0000 -10792.9747 1473.8190 0.0000 0.0000 1776.6071 -7531.7151 301.7311 -9308.3222 -7459.1534 303.1501 170.2075 303.2154 30312.1727 124.2540 202.0142
ENERGY: 900000 2.1136 7.9533 2.4628 0.0000 -10752.1914 1505.8606 0.0000 0.0000 1736.4753 -7497.3259 294.9153 -9233.8011 -7467.5528 301.7245 814.0970 926.9685 30211.8471 117.6561 192.6710
ENERGY: 1200000 1.5265 10.7020 2.6152 0.0000 -10725.7193 1475.9448 0.0000 0.0000 1820.7618 -7414.1691 309.2302 -9234.9309 -7467.1250 302.2300 405.6167 448.4302 30503.6628 60.2536 125.4208
ENERGY: 1500000 0.5601 6.9871 2.6430 0.0000 -10684.7163 1396.4510 0.0000 0.0000 1761.7149 -7516.3602 299.2019 -9278.0751 -7474.0480 301.4773 -486.8828 -334.6789 30539.2424 49.0359 118.0441
TCL: Running FEP window  15: Lambda1 0.7000000000000001 Lambda2 0.7500000000000001 [dLambda 0.050000000000000044]
TCL: Setting parameter firsttimestep to 0
TCL: Setting parameter alchLambda to 0.7000000000000001
Info: NONBONDED TABLE R-SQUARED SPACING: 0.0625
Info: NONBONDED TABLE SIZE: 705 POINTS
TCL: Setting parameter alchLambda2 to 0.7500000000000001
Info: NONBONDED TABLE R-SQUARED SPACING: 0.0625
Info: NONBONDED TABLE SIZE: 705 POINTS
TCL: Running for 1500000 steps
ETITLE: TS BOND ANGLE DIHED IMPRP ELECT VDW BOUNDARY MISC KINETIC TOTAL TEMP POTENTIAL TOTALAVG TEMPAVG PRESSURE GPRESSURE VOLUME PRESSAVG GPRESSAVG
ENERGY: 0 0.5601 6.9871 2.6430 0.0000 -10684.8289 1396.3171 0.0000 0.0000 1760.8582 -7517.4635 299.0564 -9278.3217 -7517.4635 299.0564 -409.3575 -329.1615 30539.2424 -409.3575 -329.1615
ENERGY: 300000 1.9697 5.9717 2.3268 0.0000 -10639.7416 1390.1136 0.0000 0.0000 1788.0819 -7451.2780 303.6800 -9239.3599 -7507.7476 302.0274 -456.1437 -350.1958 30667.3222 -434.5058 -352.3223
ENERGY: 600000 0.5419 7.3240 2.0989 0.0000 -10902.9102 1489.2639 0.0000 0.0000 1773.0060 -7630.6754 301.1195 -9403.6815 -7498.7360 301.2813 -177.3007 -128.2555 30468.1203 -461.4677 -377.5859
ENERGY: 900000 0.6488 7.7812 1.8599 0.0000 -10726.1182 1431.3201 0.0000 0.0000 1752.4476 -7532.0606 297.6280 -9284.5082 -7490.4050 301.2869 -323.3561 -247.1097 30675.2779 -403.5954 -321.3452
ENERGY: 1200000 3.0439 8.2109 2.6690 0.0000 -10770.8645 1491.8429 0.0000 0.0000 1816.3915 -7448.7062 308.4880 -9265.0977 -7482.6396 301.7004 825.4481 891.8439 29914.9512 -162.1264 -85.7158
ENERGY: 1500000 3.6857 8.3641 2.9103 0.0000 -10653.2391 1427.4827 0.0000 0.0000 1824.2984 -7386.4979 309.8308 -9210.7964 -7477.8224 303.0344 32.0765 107.2204 30530.9709 -92.3218 -13.0563
TCL: Running FEP window  16: Lambda1 0.7500000000000001 Lambda2 0.8000000000000002 [dLambda 0.050000000000000044]
TCL: Setting parameter firsttimestep to 0
TCL: Setting parameter alchLambda to 0.7500000000000001
Info: NONBONDED TABLE R-SQUARED SPACING: 0.0625
Info: NONBONDED TABLE SIZE: 705 POINTS
TCL: Setting parameter alchLambda2 to 0.8000000000000002
Info: NONBONDED TABLE R-SQUARED SPACING: 0.0625
Info: NONBONDED TABLE SIZE: 705 POINTS
TCL: Running for 1500000 steps
ETITLE: TS BOND ANGLE DIHED IMPRP ELECT VDW BOUNDARY MISC KINETIC TOTAL TEMP POTENTIAL TOTALAVG TEMPAVG PRESSURE GPRESSURE VOLUME PRESSAVG GPRESSAVG
ENERGY: 0 3.6857 8.3641 2.9103 0.0000 -10653.3522 1427.2740 0.0000 0.0000 1823.4150 -7387.7031 309.6808 -9211.1182 -7387.7031 309.6808 2.4150 114.9473 30530.9709 2.4150 114.9473
ENERGY: 300000 1.9786 6.4632 1.4808 0.0000 -10873.6257 1507.9124 0.0000 0.0000 1804.6056 -7551.1851 306.4863 -9355.7907 -7483.5687 302.0862 408.5853 459.4669 30234.1813 -244.7170 -176.4937
ENERGY: 600000 0.7703 9.7338 2.3781 0.0000 -10662.9503 1450.9887 0.0000 0.0000 1811.4166 -7387.6628 307.6430 -9199.0794 -7446.7672 303.3880 98.7738 189.8002 30614.2106 -176.9325 -104.7061
ENERGY: 900000 0.7036 6.2592 3.4305 0.0000 -10653.4727 1436.1066 0.0000 0.0000 1720.7454 -7486.2274 292.2438 -9206.9728 -7460.6580 303.3053 -82.8073 -60.0033 31323.0010 -256.5548 -192.9788
ENERGY: 1200000 2.0822 8.8834 2.2722 0.0000 -10850.8721 1473.3112 0.0000 0.0000 1786.2082 -7578.1150 303.3617 -9364.3232 -7453.8597 304.2567 364.8588 339.5390 30129.6918 -221.2314 -161.7132
ENERGY: 1500000 1.1593 6.1316 2.0149 0.0000 -10548.9648 1320.8075 0.0000 0.0000 1756.5240 -7462.3275 298.3203 -9218.8515 -7450.0739 304.4226 -971.1814 -968.6973 30902.6730 -362.9206 -304.9409
TCL: Running FEP window  17: Lambda1 0.8000000000000002 Lambda2 0.8500000000000002 [dLambda 0.050000000000000044]
TCL: Setting parameter firsttimestep to 0
TCL: Setting parameter alchLambda to 0.8000000000000002
Info: NONBONDED TABLE R-SQUARED SPACING: 0.0625
Info: NONBONDED TABLE SIZE: 705 POINTS
TCL: Setting parameter alchLambda2 to 0.8500000000000002
Info: NONBONDED TABLE R-SQUARED SPACING: 0.0625
Info: NONBONDED TABLE SIZE: 705 POINTS
TCL: Running for 1500000 steps
ETITLE: TS BOND ANGLE DIHED IMPRP ELECT VDW BOUNDARY MISC KINETIC TOTAL TEMP POTENTIAL TOTALAVG TEMPAVG PRESSURE GPRESSURE VOLUME PRESSAVG GPRESSAVG
ENERGY: 0 1.1593 6.1316 2.0149 0.0000 -10549.2488 1320.6984 0.0000 0.0000 1755.6391 -7463.6055 298.1700 -9219.2446 -7463.6055 298.1700 -1034.1197 -960.1531 30902.6730 -1034.1197 -960.1531
ENERGY: 300000 4.3573 8.4714 2.4161 0.0000 -10703.7106 1481.1816 0.0000 0.0000 1715.7277 -7491.5565 291.3917 -9207.2842 -7560.3671 293.7116 363.3735 480.2401 30869.8182 65.3719 135.7552
ENERGY: 600000 0.4075 6.7586 2.3046 0.0000 -10668.1788 1403.0308 0.0000 0.0000 1759.3796 -7496.2976 298.8053 -9255.6772 -7535.5375 297.4954 -503.3327 -397.9858 30994.7490 -56.8437 9.4499
ENERGY: 900000 0.7983 7.0569 2.1650 0.0000 -10688.5997 1413.6547 0.0000 0.0000 1755.0597 -7509.8651 298.0716 -9264.9248 -7550.4167 295.6052 -194.0813 -96.8825 30278.7508 -21.2412 39.8405
ENERGY: 1200000 0.7232 9.0454 3.5611 0.0000 -10673.5933 1444.6951 0.0000 0.0000 1767.7994 -7447.7691 300.2353 -9215.5684 -7527.4233 297.3146 -49.3914 -3.2076 30946.5782 -55.0807 1.9851
ENERGY: 1500000 2.8690 7.5526 2.5156 0.0000 -10563.2268 1334.8032 0.0000 0.0000 1786.9421 -7428.5443 303.4864 -9215.4865 -7521.1338 297.9807 -822.4733 -792.3086 30916.9770 -60.1357 -5.6226
TCL: Running FEP window  18: Lambda1 0.8500000000000002 Lambda2 0.9000000000000002 [dLambda 0.050000000000000044]
TCL: Setting parameter firsttimestep to 0
TCL: Setting parameter alchLambda to 0.8500000000000002
Info: NONBONDED TABLE R-SQUARED SPACING: 0.0625
Info: NONBONDED TABLE SIZE: 705 POINTS
TCL: Setting parameter alchLambda2 to 0.9000000000000002
Info: NONBONDED TABLE R-SQUARED SPACING: 0.0625
Info: NONBONDED TABLE SIZE: 705 POINTS
TCL: Running for 1500000 steps
ETITLE: TS BOND ANGLE DIHED IMPRP ELECT VDW BOUNDARY MISC KINETIC TOTAL TEMP POTENTIAL TOTALAVG TEMPAVG PRESSURE GPRESSURE VOLUME PRESSAVG GPRESSAVG
ENERGY: 0 2.8690 7.5526 2.5156 0.0000 -10563.3508 1334.7197 0.0000 0.0000 1786.0505 -7429.6434 303.3350 -9215.6939 -7429.6434 303.3350 -861.3193 -781.3651 30916.9770 -861.3193 -781.3651
ENERGY: 300000 0.2532 7.8714 3.2596 0.0000 -10780.0559 1470.1403 0.0000 0.0000 1742.6709 -7555.8604 295.9676 -9298.5313 -7499.7464 301.5675 166.2981 199.0721 30394.8387 -141.6225 -89.6013
ENERGY: 600000 0.8979 5.6381 2.0602 0.0000 -10582.0210 1385.5676 0.0000 0.0000 1754.9173 -7432.9398 298.0474 -9187.8571 -7476.6488 302.2445 -298.2893 -247.0559 30640.9233 -63.3683 -7.9939
ENERGY: 900000 1.4325 7.3747 2.5416 0.0000 -10621.5829 1363.2857 0.0000 0.0000 1786.4176 -7460.5308 303.3973 -9246.9484 -7473.7230 301.4511 -266.5309 -221.7173 30061.6745 -90.9452 -35.5762
ENERGY: 1200000 2.1266 8.8207 1.6593 0.0000 -10713.8375 1432.5546 0.0000 0.0000 1765.6092 -7503.0672 299.8633 -9268.6764 -7475.4391 301.8042 -188.9069 -127.6256 30811.1655 -40.1301 15.4606
ENERGY: 1500000 2.9735 10.4936 4.5776 0.0000 -10756.3830 1426.4282 0.0000 0.0000 1724.2186 -7587.6916 292.8337 -9311.9101 -7480.8645 301.2862 -279.3158 -271.7967 30221.4481 -21.5598 28.0180
TCL: Running FEP window  19: Lambda1 0.9000000000000002 Lambda2 0.9500000000000003 [dLambda 0.050000000000000044]
TCL: Setting parameter firsttimestep to 0
TCL: Setting parameter alchLambda to 0.9000000000000002
Info: NONBONDED TABLE R-SQUARED SPACING: 0.0625
Info: NONBONDED TABLE SIZE: 705 POINTS
TCL: Setting parameter alchLambda2 to 0.9500000000000003
Info: NONBONDED TABLE R-SQUARED SPACING: 0.0625
Info: NONBONDED TABLE SIZE: 705 POINTS
TCL: Running for 1500000 steps
ETITLE: TS BOND ANGLE DIHED IMPRP ELECT VDW BOUNDARY MISC KINETIC TOTAL TEMP POTENTIAL TOTALAVG TEMPAVG PRESSURE GPRESSURE VOLUME PRESSAVG GPRESSAVG
ENERGY: 0 2.9735 10.4936 4.5776 0.0000 -10756.4603 1425.6815 0.0000 0.0000 1723.3255 -7589.4087 292.6820 -9312.7341 -7589.4087 292.6820 -367.8139 -270.8112 30221.4481 -367.8139 -270.8112
ENERGY: 300000 0.5631 5.2935 2.5181 0.0000 -10583.6049 1353.1085 0.0000 0.0000 1791.1577 -7430.9640 304.2023 -9222.1217 -7455.2165 300.3925 -505.8849 -410.5133 30493.9332 -218.0983 -146.6749
ENERGY: 600000 1.3633 8.6436 2.2930 0.0000 -10827.5436 1505.1142 0.0000 0.0000 1733.9643 -7576.1652 294.4889 -9310.1295 -7487.0393 297.4726 123.2189 174.9078 30743.3299 -64.9081 -17.6614
ENERGY: 900000 1.1126 3.7491 2.2140 0.0000 -10792.2410 1482.5413 0.0000 0.0000 1771.8711 -7530.7530 300.9268 -9302.6241 -7480.7502 299.9371 66.0766 160.3947 30907.9348 -54.0110 -2.9025
ENERGY: 1200000 1.9042 7.8285 2.5320 0.0000 -10727.3147 1475.1654 0.0000 0.0000 1781.8223 -7458.0624 302.6169 -9239.8847 -7481.5703 300.0083 449.6386 572.6764 30191.7410 -26.6191 31.1741
ENERGY: 1500000 0.5320 7.5842 1.9144 0.0000 -10818.2494 1502.8203 0.0000 0.0000 1716.1568 -7589.2417 291.4645 -9305.3985 -7491.7242 299.5773 532.8401 602.5609 29898.3296 -14.9839 42.3588
TCL: Running FEP window  20: Lambda1 0.9500000000000003 Lambda2 1.0    [dLambda 0.04999999999999971]
TCL: Setting parameter firsttimestep to 0
TCL: Setting parameter alchLambda to 0.9500000000000003
Info: NONBONDED TABLE R-SQUARED SPACING: 0.0625
Info: NONBONDED TABLE SIZE: 705 POINTS
TCL: Setting parameter alchLambda2 to 1.0
Info: NONBONDED TABLE R-SQUARED SPACING: 0.0625
Info: NONBONDED TABLE SIZE: 705 POINTS
TCL: Running for 1500000 steps
ETITLE: TS BOND ANGLE DIHED IMPRP ELECT VDW BOUNDARY MISC KINETIC TOTAL TEMP POTENTIAL TOTALAVG TEMPAVG PRESSURE GPRESSURE VOLUME PRESSAVG GPRESSAVG
ENERGY: 0 0.5320 7.5842 1.9144 0.0000 -10818.4727 1502.6332 0.0000 0.0000 1715.2679 -7590.5411 291.3135 -9305.8090 -7590.5411 291.3135 508.5243 607.3568 29898.3296 508.5243 607.3568
ENERGY: 300000 3.9814 8.4716 3.4888 0.0000 -10751.7961 1465.9864 0.0000 0.0000 1866.3828 -7403.4852 316.9783 -9269.8680 -7510.2895 300.3558 261.2064 347.9933 30336.9842 -56.4191 15.1128
ENERGY: 600000 1.4712 7.8348 4.8611 0.0000 -10740.5530 1366.9619 0.0000 0.0000 1794.1166 -7565.3075 304.7049 -9359.4240 -7518.6738 299.7324 -740.5248 -690.2536 30301.1904 -222.9357 -159.4154
ENERGY: 900000 2.1657 10.2057 2.8217 0.0000 -10711.1378 1384.8264 0.0000 0.0000 1721.2077 -7589.9107 292.3223 -9311.1183 -7540.3396 297.7226 -669.4949 -613.5207 30521.7846 -245.8387 -186.9581
ENERGY: 1200000 0.4568 5.2302 2.1714 0.0000 -10717.2102 1413.4213 0.0000 0.0000 1770.5297 -7525.4008 300.6990 -9295.9305 -7528.5248 297.9039 -214.1788 -179.2584 30414.0196 -271.6807 -206.2406
ENERGY: 1500000 2.7232 9.8161 2.0644 0.0000 -10691.6601 1413.2080 0.0000 0.0000 1775.3496 -7488.4988 301.5176 -9263.8484 -7523.3894 297.7462 -230.9833 -223.8216 30562.6599 -164.0126 -105.0275
TCL: Exiting due to exit command.
