Info: SIMULATION PARAMETERS:
Info: TIMESTEP               2
Info: NUMBER OF STEPS        0
Info: STEPS PER CYCLE        10
Info: PERIODIC CELL BASIS 1  30.3605 0 0
Info: PERIODIC CELL BASIS 2  0 30.7945 0
Info: PERIODIC CELL BASIS 3  0 0 33.0125
Info: PERIODIC CELL CENTER   0 0 0
Info: WRAPPING WATERS AROUND PERIODIC BOUNDARIES ON OUTPUT.
Info: WRAPPING ALL CLUSTERS AROUND PERIODIC BOUNDARIES ON OUTPUT.
Info: FIRST LDB TIMESTEP     50
Info: LAST LDB TIMESTEP     -1
Info: HOM BACKGROUND SCALING 1
Info: PME BACKGROUND SCALING 1
Info: MIN ATOMS PER PATCH    40
Info: EMPTY PATCH LOAD       40 ATOMS
Info: VELOCITY FILE          mobley_7463408_equil.vel
Info: CENTER OF MASS MOVING INITIALLY? NO
Info: DIELECTRIC             1
Info: EXCLUDE                SCALED ONE-FOUR
Info: 1-4 ELECTROSTATICS SCALED BY 0.833333
Info: MODIFIED 1-4 VDW PARAMETERS WILL BE USED
Info: DCD FILENAME           mobley_7463408_prod.dcd
Info: DCD FREQUENCY          100000
Info: DCD FIRST STEP         100000
Info: DCD FILE WILL CONTAIN UNIT CELL DATA
Info: XST FILENAME           mobley_7463408_prod.xst
Info: XST FREQUENCY          100000
Info: NO VELOCITY DCD OUTPUT
Info: NO FORCE DCD OUTPUT
Info: OUTPUT FILENAME        mobley_7463408_prod
Info: BINARY OUTPUT FILES WILL BE USED
Info: RESTART FILENAME       mobley_7463408_prod.restart
Info: RESTART FREQUENCY      100000
Info: BINARY RESTART FILES WILL BE USED
Info: CUTOFF                 9
Info: PAIRLIST DISTANCE      11
Info: PAIRLIST SHRINK RATE   0.01
Info: PAIRLIST GROW RATE     0.01
Info: PAIRLIST TRIGGER       0.3
Info: PAIRLISTS PER CYCLE    2
Info: PAIRLISTS ENABLED
Info: MARGIN                 2
Info: HYDROGEN GROUP CUTOFF  2.5
Info: PATCH DIMENSION        15.5
Info: ENERGY OUTPUT STEPS    100000
Info: ENERGY EVALUATION STEPS    100000
Info: OUTPUT ENERGY PRECISION 4
Info: CROSSTERM ENERGY INCLUDED IN DIHEDRAL
Info: TIMING OUTPUT STEPS    1000000
Info: PRESSURE OUTPUT STEPS  100000
Info: ALCHEMICAL FEP ON
Info: FEP CURRENT LAMBDA VALUE     0
Info: FEP COMPARISON LAMBDA VALUE  0.05
Info: FEP INTRA-ALCHEMICAL NON-BONDED INTERACTIONS WILL BE RETAINED
Info: FEP INTRA-ALCHEMICAL BONDED INTERACTIONS WILL BE RETAINED
Info: FEP VDW SHIFTING COEFFICIENT 5
Info: FEP ELEC. ACTIVE FOR ANNIHILATED PARTICLES BETWEEN LAMBDA = 0 AND LAMBDA = 0.5
Info: FEP ELEC. ACTIVE FOR EXNIHILATED PARTICLES BETWEEN LAMBDA = 0.5 AND LAMBDA = 1
Info: FEP VDW ACTIVE FOR ANNIHILATED PARTICLES BETWEEN LAMBDA = 0 AND LAMBDA = 1
Info: FEP VDW ACTIVE FOR EXNIHILATED PARTICLES BETWEEN LAMBDA = 0 AND LAMBDA = 1
Info: FEP BOND ACTIVE FOR ANNIHILATED PARTICLES BETWEEN LAMBDA = 1 AND LAMBDA = 1
Info: FEP BOND ACTIVE FOR EXNIHILATED PARTICLES BETWEEN LAMBDA = 0 AND LAMBDA = 0
Info: LANGEVIN DYNAMICS ACTIVE
Info: LANGEVIN TEMPERATURE   300
Info: LANGEVIN USING BBK INTEGRATOR
Info: LANGEVIN DAMPING COEFFICIENT IS 1 INVERSE PS
Info: LANGEVIN DYNAMICS APPLIED TO HYDROGENS
Info: LANGEVIN PISTON PRESSURE CONTROL ACTIVE
Info:        TARGET PRESSURE IS 1.01325 BAR
Info:     OSCILLATION PERIOD IS 50 FS
Info:             DECAY TIME IS 25 FS
Info:     PISTON TEMPERATURE IS 300 K
Info:       PRESSURE CONTROL IS GROUP-BASED
Info:    INITIAL STRAIN RATE IS -0.000605183 -0.000605183 -0.000605183
Info:       CELL FLUCTUATION IS ISOTROPIC
Info: PARTICLE MESH EWALD (PME) ACTIVE
Info: PME TOLERANCE               1e-06
Info: PME EWALD COEFFICIENT       0.348832
Info: PME INTERPOLATION ORDER     4
Info: PME GRID DIMENSIONS         32 32 36
Info: PME MAXIMUM GRID SPACING    1
Info: PME CALCULATION WILL BE PERFORMED ON GPU
Info: FULL ELECTROSTATIC EVALUATION FREQUENCY      2
Info: USING VERLET I (r-RESPA) MTS SCHEME.
Info: C1 SPLITTING OF LONG RANGE ELECTROSTATICS
Info: PLACING ATOMS IN PATCHES BY HYDROGEN GROUPS
Info: RIGID BONDS TO HYDROGEN : ALL
Info:         ERROR TOLERANCE : 1e-08
Info:          MAX ITERATIONS : 100
Info: RIGID WATER USING SETTLE ALGORITHM
Info: RANDOM NUMBER SEED     1743877534
Info: USE HYDROGEN BONDS?    NO
Info: Using AMBER format force field!
Info: AMBER PARM FILE        mobley_7463408.prmtop
Info: COORDINATE PDB         mobley_7463408.pdb
Info: Exclusions will be read from PARM file!
Info: SCNB (VDW SCALING)     2
Info: USING ARITHMETIC MEAN TO COMBINE L-J SIGMA PARAMETERS
Info: BINARY COORDINATES     mobley_7463408_equil.coor
Info: SUMMARY OF PARAMETERS:
Info: 12 BONDS
Info: 14 ANGLES
Info:   14 HARMONIC
Info:   0 COSINE-BASED
Info: 14 DIHEDRAL
Info: 0 IMPROPER
Info: 0 CROSSTERM
Info: 0 VDW
Info: 55 VDW_PAIRS
Info: 0 NBTHOLE_PAIRS
Info: To read alchdata from file: mobley_7463408.pdb
Info: To read alchflag data from column: 5
Info: STRUCTURE SUMMARY:
Info: 2989 ATOMS
Info: 2989 BONDS
Info: 36 ANGLES
Info: 61 DIHEDRALS
Info: 0 IMPROPERS
Info: 0 CROSSTERMS
Info: 3069 EXCLUSIONS
Info: 2976 RIGID BONDS
Info: ALCH: 0 ATOMS TO DISAPPEAR IN FINAL STATE
Info: ALCH: 22 ATOMS TO APPEAR IN FINAL STATE
Info: 5991 DEGREES OF FREEDOM
Info: 1002 HYDROGEN GROUPS
Info: 4 ATOMS IN LARGEST HYDROGEN GROUP
Info: 1002 MIGRATION GROUPS
Info: 4 ATOMS IN LARGEST MIGRATION GROUP
Info: TOTAL MASS = 18035.9 amu
Info: TOTAL CHARGE = -9.99626e-05 e
Info: MASS DENSITY = 0.970369 g/cm^3
Info: ATOM DENSITY = 0.0968425 atoms/A^3
Info: ADDED 0 IMPLICIT EXCLUSIONS
Info: NONBONDED TABLE R-SQUARED SPACING: 0.0625
Info: NONBONDED TABLE SIZE: 705 POINTS
Info: REMOVING COM VELOCITY 0.0159063 -0.024482 -0.024972
Info: Use 3D box decompostion in PME FFT.
Info: Updated CUDA force table with 4096 elements.
Info: Updated CUDA LJ table with 10 x 10 elements.
Info: Found 24 unique exclusion lists needing 76 bytes
TCL: Running for 1500000 steps
ETITLE: TS BOND ANGLE DIHED IMPRP ELECT VDW BOUNDARY MISC KINETIC TOTAL TEMP POTENTIAL TOTALAVG TEMPAVG PRESSURE GPRESSURE VOLUME PRESSAVG GPRESSAVG
ENERGY: 0 2.2518 4.5596 6.8712 0.0000 -10739.4283 1442.2784 0.0000 0.0000 1796.3477 -7487.1196 301.7738 -9283.4673 -7487.1196 301.7738 15.9136 115.1952 30864.5472 15.9136 115.1952
ENERGY: 300000 2.3418 5.5643 7.0370 0.0000 -10951.0755 1512.9358 0.0000 0.0000 1778.3261 -7644.8705 298.7462 -9423.1966 -7539.4282 305.6625 117.3209 238.5247 30372.1115 -296.0854 -200.7602
ENERGY: 600000 7.2772 9.6127 9.5396 0.0000 -10924.2435 1498.7055 0.0000 0.0000 1800.1167 -7598.9918 302.4069 -9399.1085 -7574.1854 302.9235 580.9687 613.3191 30167.8190 -18.6182 65.5090
ENERGY: 900000 5.2044 4.4965 7.2383 0.0000 -10859.3264 1499.6769 0.0000 0.0000 1794.6612 -7548.0491 301.4904 -9342.7103 -7583.1809 300.9959 484.0048 544.0146 30470.2268 8.7994 76.0362
ENERGY: 1200000 4.1810 5.5541 7.1958 0.0000 -10909.3390 1509.0263 0.0000 0.0000 1756.6668 -7626.7150 295.1076 -9383.3818 -7581.1433 301.4805 202.2453 265.1891 30632.6258 -30.5236 35.8075
ENERGY: 1500000 3.4920 10.0217 4.2259 0.0000 -10806.8604 1415.0993 0.0000 0.0000 1742.6721 -7631.3494 292.7566 -9374.0215 -7584.2587 300.1099 -180.3676 -133.9224 30598.4369 32.1040 90.0911
TCL: Running FEP window   2: Lambda1 0.05   Lambda2 0.1    [dLambda 0.05  ]
TCL: Setting parameter firsttimestep to 0
TCL: Setting parameter alchLambda to 0.05
Info: NONBONDED TABLE R-SQUARED SPACING: 0.0625
Info: NONBONDED TABLE SIZE: 705 POINTS
TCL: Setting parameter alchLambda2 to 0.1
Info: NONBONDED TABLE R-SQUARED SPACING: 0.0625
Info: NONBONDED TABLE SIZE: 705 POINTS
TCL: Running for 1500000 steps
ETITLE: TS BOND ANGLE DIHED IMPRP ELECT VDW BOUNDARY MISC KINETIC TOTAL TEMP POTENTIAL TOTALAVG TEMPAVG PRESSURE GPRESSURE VOLUME PRESSAVG GPRESSAVG
ENERGY: 0 3.4920 10.0217 4.2259 0.0000 -10806.8615 1420.8277 0.0000 0.0000 1741.7649 -7626.5293 292.6042 -9368.2942 -7626.5293 292.6042 -195.5341 -117.3418 30598.4369 -195.5341 -117.3418
ENERGY: 300000 4.6505 6.3010 6.1018 0.0000 -10958.1757 1538.7675 0.0000 0.0000 1760.7683 -7641.5866 295.7967 -9402.3549 -7618.8475 296.8209 467.6055 461.1939 30501.9428 60.5719 111.8974
ENERGY: 600000 6.3530 10.6499 4.6798 0.0000 -10841.6998 1447.1551 0.0000 0.0000 1783.0399 -7589.8221 299.5381 -9372.8620 -7598.9206 299.0438 -463.1216 -403.9929 31065.5105 -109.8841 -34.3711
ENERGY: 900000 4.8150 9.1869 4.8972 0.0000 -10821.3399 1421.8137 0.0000 0.0000 1811.2704 -7569.3567 304.2807 -9380.6271 -7596.8342 299.2771 -330.2322 -199.9501 30462.3649 -284.2581 -209.1704
ENERGY: 1200000 8.0472 3.9215 8.0148 0.0000 -10895.4887 1485.5474 0.0000 0.0000 1850.6708 -7539.2870 310.8997 -9389.9578 -7593.2003 299.8327 103.8179 185.8835 30567.4424 -249.4938 -182.3695
ENERGY: 1500000 4.6035 9.9830 8.2568 0.0000 -10987.0107 1502.6792 0.0000 0.0000 1762.6823 -7698.8060 296.1182 -9461.4883 -7602.2916 299.9108 -50.8955 -7.5305 30941.2164 -188.9722 -125.5001
TCL: Running FEP window   3: Lambda1 0.1    Lambda2 0.15000000000000002 [dLambda 0.05000000000000002]
TCL: Setting parameter firsttimestep to 0
TCL: Setting parameter alchLambda to 0.1
Info: NONBONDED TABLE R-SQUARED SPACING: 0.0625
Info: NONBONDED TABLE SIZE: 705 POINTS
TCL: Setting parameter alchLambda2 to 0.15000000000000002
Info: NONBONDED TABLE R-SQUARED SPACING: 0.0625
Info: NONBONDED TABLE SIZE: 705 POINTS
TCL: Running for 1500000 steps
ETITLE: TS BOND ANGLE DIHED IMPRP ELECT VDW BOUNDARY MISC KINETIC TOTAL TEMP POTENTIAL TOTALAVG TEMPAVG PRESSURE GPRESSURE VOLUME PRESSAVG GPRESSAVG
ENERGY: 0 4.6035 9.9830 8.2568 0.0000 -10987.0108 1503.5988 0.0000 0.0000 1761.8143 -7698.7544 295.9724 -9460.5688 -7698.7544 295.9724 -93.6788 -1.9098 30941.2164 -93.6788 -1.9098
ENERGY: 300000 7.9013 8.0858 4.6331 0.0000 -10766.7395 1467.8697 0.0000 0.0000 1817.0257 -7461.2237 305.2475 -9278.2495 -7557.9706 301.4468 332.9435 419.2488 30732.2381 71.1388 144.9889
ENERGY: 600000 3.6813 10.0082 5.6111 0.0000 -10820.3586 1477.7502 0.0000 0.0000 1751.0438 -7572.2640 294.1630 -9323.3078 -7556.4668 300.9035 299.7817 401.1934 30197.3097 98.3493 174.9226
ENERGY: 900000 5.7002 7.8801 5.8671 0.0000 -10918.4353 1485.5772 0.0000 0.0000 1836.8141 -7576.5967 308.5718 -9413.4109 -7563.6150 302.1781 324.4952 460.4426 30042.6453 49.5685 125.3189
ENERGY: 1200000 5.2627 5.8546 6.4207 0.0000 -10957.2504 1520.4548 0.0000 0.0000 1799.2547 -7620.0029 302.2621 -9419.2575 -7559.7689 302.0110 514.0837 613.0498 30311.9695 107.9235 181.3566
ENERGY: 1500000 3.5781 6.2532 7.3848 0.0000 -10843.6673 1479.6911 0.0000 0.0000 1880.2886 -7466.4714 315.8752 -9346.7600 -7561.2044 302.6024 289.3326 417.4459 30601.0265 93.4624 171.6152
TCL: Running FEP window   4: Lambda1 0.15000000000000002 Lambda2 0.2    [dLambda 0.04999999999999999]
TCL: Setting parameter firsttimestep to 0
TCL: Setting parameter alchLambda to 0.15000000000000002
Info: NONBONDED TABLE R-SQUARED SPACING: 0.0625
Info: NONBONDED TABLE SIZE: 705 POINTS
TCL: Setting parameter alchLambda2 to 0.2
Info: NONBONDED TABLE R-SQUARED SPACING: 0.0625
Info: NONBONDED TABLE SIZE: 705 POINTS
TCL: Running for 1500000 steps
ETITLE: TS BOND ANGLE DIHED IMPRP ELECT VDW BOUNDARY MISC KINETIC TOTAL TEMP POTENTIAL TOTALAVG TEMPAVG PRESSURE GPRESSURE VOLUME PRESSAVG GPRESSAVG
ENERGY: 0 3.5781 6.2532 7.3848 0.0000 -10843.6683 1480.6241 0.0000 0.0000 1879.3996 -7466.4284 315.7259 -9345.8280 -7466.4284 315.7259 325.7227 424.8769 30601.0265 325.7227 424.8769
ENERGY: 300000 7.3073 4.6766 7.8071 0.0000 -10885.2523 1480.0907 0.0000 0.0000 1769.2775 -7616.0931 297.2261 -9385.3705 -7561.5356 303.0170 -201.5004 -76.3317 31002.5329 -53.5317 16.3926
ENERGY: 600000 3.0766 10.2247 3.9768 0.0000 -10878.8709 1497.4887 0.0000 0.0000 1834.4790 -7529.6251 308.1795 -9364.1041 -7557.6707 302.2466 113.8618 105.0163 30940.4200 -50.7040 4.0683
ENERGY: 900000 3.1014 5.2996 7.6901 0.0000 -10828.5922 1384.7017 0.0000 0.0000 1735.6281 -7692.1713 291.5733 -9427.7994 -7572.0573 300.3180 -528.6371 -509.1137 30326.0606 74.6091 124.3535
ENERGY: 1200000 6.9577 11.0658 5.2035 0.0000 -10847.5136 1436.6278 0.0000 0.0000 1800.6733 -7586.9854 302.5004 -9387.6588 -7584.5450 299.9056 -340.4360 -270.0373 30500.6738 10.9090 56.0938
ENERGY: 1500000 4.9903 4.9852 6.8612 0.0000 -10783.3171 1388.8755 0.0000 0.0000 1746.9662 -7630.6386 293.4780 -9377.6048 -7586.4709 299.8486 -576.5536 -486.8119 30409.3472 -78.9428 -18.1137
TCL: Running FEP window   5: Lambda1 0.2    Lambda2 0.25   [dLambda 0.04999999999999999]
TCL: Setting parameter firsttimestep to 0
TCL: Setting parameter alchLambda to 0.2
Info: NONBONDED TABLE R-SQUARED SPACING: 0.0625
Info: NONBONDED TABLE SIZE: 705 POINTS
TCL: Setting parameter alchLambda2 to 0.25
Info: NONBONDED TABLE R-SQUARED SPACING: 0.0625
Info: NONBONDED TABLE SIZE: 705 POINTS
TCL: Running for 1500000 steps
ETITLE: TS BOND ANGLE DIHED IMPRP ELECT VDW BOUNDARY MISC KINETIC TOTAL TEMP POTENTIAL TOTALAVG TEMPAVG PRESSURE GPRESSURE VOLUME PRESSAVG GPRESSAVG
ENERGY: 0 4.9903 4.9852 6.8612 0.0000 -10783.3166 1390.2494 0.0000 0.0000 1746.0795 -7630.1509 293.3291 -9376.2304 -7630.1509 293.3291 -556.4983 -469.5909 30409.3472 -556.4983 -469.5909
ENERGY: 300000 5.1611 6.8606 5.8991 0.0000 -10768.4925 1465.3455 0.0000 0.0000 1799.0678 -7486.1584 302.2307 -9285.2262 -7589.6178 296.3786 368.2456 423.8186 30417.1301 -137.1441 -82.9606
ENERGY: 600000 3.4009 8.0003 5.3826 0.0000 -10711.2842 1364.1268 0.0000 0.0000 1744.0509 -7586.3226 292.9883 -9330.3735 -7606.0844 295.4253 -885.5087 -842.2472 31186.0768 -155.3501 -100.7150
ENERGY: 900000 5.0234 11.1479 4.8091 0.0000 -10944.0259 1504.9928 0.0000 0.0000 1722.4268 -7695.6259 289.3556 -9418.0527 -7614.1432 296.4790 -110.0811 -90.1511 30622.8828 -107.9485 -51.2952
ENERGY: 1200000 5.9166 5.2926 5.9096 0.0000 -10817.6570 1432.4594 0.0000 0.0000 1784.3378 -7583.7410 299.7562 -9368.0789 -7600.9239 297.3748 -231.0348 -149.2422 30592.4429 -118.4169 -57.5725
ENERGY: 1500000 1.4283 8.3144 3.1283 0.0000 -10882.4932 1469.1522 0.0000 0.0000 1809.1193 -7591.3506 303.9193 -9400.4699 -7600.2087 297.9826 -36.5414 19.5003 30810.1664 -100.6167 -36.1847
TCL: Running FEP window   6: Lambda1 0.25   Lambda2 0.3    [dLambda 0.04999999999999999]
TCL: Setting parameter firsttimestep to 0
TCL: Setting parameter alchLambda to 0.25
Info: NONBONDED TABLE R-SQUARED SPACING: 0.0625
Info: NONBONDED TABLE SIZE: 705 POINTS
TCL: Setting parameter alchLambda2 to 0.3
Info: NONBONDED TABLE R-SQUARED SPACING: 0.0625
Info: NONBONDED TABLE SIZE: 705 POINTS
TCL: Running for 1500000 steps
ETITLE: TS BOND ANGLE DIHED IMPRP ELECT VDW BOUNDARY MISC KINETIC TOTAL TEMP POTENTIAL TOTALAVG TEMPAVG PRESSURE GPRESSURE VOLUME PRESSAVG GPRESSAVG
ENERGY: 0 1.4283 8.3144 3.1283 0.0000 -10882.4928 1468.7914 0.0000 0.0000 1808.1928 -7592.6377 303.7636 -9400.8304 -7592.6377 303.7636 -60.4929 22.9891 30810.1664 -60.4929 22.9891
ENERGY: 300000 4.1716 7.1839 8.1859 0.0000 -10883.4333 1486.4126 0.0000 0.0000 1815.0902 -7562.3891 304.9224 -9377.4793 -7573.1583 303.3108 206.5292 240.2118 30777.3817 -243.1655 -205.8480
ENERGY: 600000 3.0296 6.3372 5.7596 0.0000 -10867.5227 1424.4819 0.0000 0.0000 1768.1600 -7659.7544 297.0384 -9427.9143 -7590.1824 301.0134 -269.7462 -212.1811 30228.9750 -208.4808 -152.3725
ENERGY: 900000 6.2313 8.2567 5.9653 0.0000 -10903.1429 1458.4832 0.0000 0.0000 1783.7551 -7640.4513 299.6583 -9424.2064 -7584.1836 302.1296 -223.9168 -153.0768 30418.6438 -210.7993 -150.3670
ENERGY: 1200000 1.9358 6.9352 9.1056 0.0000 -10858.2263 1434.3680 0.0000 0.0000 1795.1377 -7610.7439 301.5705 -9405.8817 -7583.4818 301.1422 -329.6105 -254.8420 30691.7462 -220.2110 -156.5390
ENERGY: 1500000 3.2745 6.5716 5.9411 0.0000 -10827.1218 1424.1545 0.0000 0.0000 1759.8568 -7627.3233 295.6435 -9387.1801 -7595.7902 300.6555 -537.1061 -474.7316 31017.8697 -238.7217 -173.5334
TCL: Running FEP window   7: Lambda1 0.3    Lambda2 0.35   [dLambda 0.04999999999999999]
TCL: Setting parameter firsttimestep to 0
TCL: Setting parameter alchLambda to 0.3
Info: NONBONDED TABLE R-SQUARED SPACING: 0.0625
Info: NONBONDED TABLE SIZE: 705 POINTS
TCL: Setting parameter alchLambda2 to 0.35
Info: NONBONDED TABLE R-SQUARED SPACING: 0.0625
Info: NONBONDED TABLE SIZE: 705 POINTS
TCL: Running for 1500000 steps
ETITLE: TS BOND ANGLE DIHED IMPRP ELECT VDW BOUNDARY MISC KINETIC TOTAL TEMP POTENTIAL TOTALAVG TEMPAVG PRESSURE GPRESSURE VOLUME PRESSAVG GPRESSAVG
ENERGY: 0 3.2745 6.5716 5.9411 0.0000 -10827.1191 1423.8771 0.0000 0.0000 1758.9396 -7628.5151 295.4895 -9387.4548 -7628.5151 295.4895 -545.0261 -471.7860 31017.8697 -545.0261 -471.7860
ENERGY: 300000 3.3429 6.7496 7.6500 0.0000 -10844.7454 1449.5466 0.0000 0.0000 1822.7865 -7554.6699 306.2153 -9377.4564 -7598.7246 299.0628 -61.0339 -42.3327 30722.5501 -192.1898 -133.6658
ENERGY: 600000 3.5137 11.1956 7.3338 0.0000 -10796.0334 1449.1929 0.0000 0.0000 1792.6379 -7532.1595 301.1505 -9324.7974 -7575.0205 300.0742 301.3951 336.8120 30271.3362 -92.3711 -39.2481
ENERGY: 900000 4.8442 4.9449 5.1850 0.0000 -11018.7750 1562.4566 0.0000 0.0000 1746.0784 -7695.2659 293.3289 -9441.3443 -7595.0299 298.6699 572.4112 638.8277 30624.0759 52.2088 116.9872
ENERGY: 1200000 4.5861 9.9099 5.9318 0.0000 -10884.4946 1483.9200 0.0000 0.0000 1819.1843 -7560.9625 305.6101 -9380.1468 -7585.5907 299.2310 522.8060 571.8962 30202.0035 97.2859 168.5279
ENERGY: 1500000 6.2426 4.1227 5.7094 0.0000 -10889.7284 1454.6381 0.0000 0.0000 1802.3977 -7616.6180 302.7901 -9419.0157 -7584.8106 299.9669 -302.3318 -247.5622 30772.0943 98.0407 168.6916
TCL: Running FEP window   8: Lambda1 0.35   Lambda2 0.39999999999999997 [dLambda 0.04999999999999999]
TCL: Setting parameter firsttimestep to 0
TCL: Setting parameter alchLambda to 0.35
Info: NONBONDED TABLE R-SQUARED SPACING: 0.0625
Info: NONBONDED TABLE SIZE: 705 POINTS
TCL: Setting parameter alchLambda2 to 0.39999999999999997
Info: NONBONDED TABLE R-SQUARED SPACING: 0.0625
Info: NONBONDED TABLE SIZE: 705 POINTS
TCL: Running for 1500000 steps
ETITLE: TS BOND ANGLE DIHED IMPRP ELECT VDW BOUNDARY MISC KINETIC TOTAL TEMP POTENTIAL TOTALAVG TEMPAVG PRESSURE GPRESSURE VOLUME PRESSAVG GPRESSAVG
ENERGY: 0 6.2426 4.1227 5.7094 0.0000 -10889.7272 1455.4363 0.0000 0.0000 1801.5223 -7616.6941 302.6431 -9418.2164 -7616.6941 302.6431 -305.5524 -233.6105 30772.0943 -305.5524 -233.6105
ENERGY: 300000 4.3226 7.7443 7.8005 0.0000 -10835.3066 1436.2461 0.0000 0.0000 1765.3999 -7613.7933 296.5747 -9379.1932 -7587.8321 300.7933 7.2381 97.1335 30524.6967 -184.3788 -118.3623
ENERGY: 600000 2.3177 6.7168 8.9204 0.0000 -10782.9085 1406.7825 0.0000 0.0000 1818.7699 -7539.4013 305.5405 -9358.1712 -7566.4891 303.2144 -599.4655 -556.2575 31244.0942 -325.3098 -271.3489
ENERGY: 900000 4.2054 10.5784 4.8458 0.0000 -10761.8756 1370.5848 0.0000 0.0000 1789.2541 -7582.4070 300.5821 -9371.6611 -7570.5859 302.3978 -881.6887 -817.1266 30680.8834 -393.1840 -344.1381
ENERGY: 1200000 4.3471 4.4033 4.6596 0.0000 -10754.0795 1414.0453 0.0000 0.0000 1760.3402 -7566.2840 295.7248 -9326.6242 -7569.9759 300.6799 -436.4115 -331.4920 31052.6539 -363.4893 -311.3796
ENERGY: 1500000 6.0101 6.7361 6.3540 0.0000 -10904.5676 1511.5430 0.0000 0.0000 1777.5556 -7596.3688 298.6168 -9373.9244 -7570.6304 300.4323 580.7929 603.7822 30603.2547 -237.3600 -185.9417
TCL: Running FEP window   9: Lambda1 0.39999999999999997 Lambda2 0.44999999999999996 [dLambda 0.04999999999999999]
TCL: Setting parameter firsttimestep to 0
TCL: Setting parameter alchLambda to 0.39999999999999997
Info: NONBONDED TABLE R-SQUARED SPACING: 0.0625
Info: NONBONDED TABLE SIZE: 705 POINTS
TCL: Setting parameter alchLambda2 to 0.44999999999999996
Info: NONBONDED TABLE R-SQUARED SPACING: 0.0625
Info: NONBONDED TABLE SIZE: 705 POINTS
TCL: Running for 1500000 steps
ETITLE: TS BOND ANGLE DIHED IMPRP ELECT VDW BOUNDARY MISC KINETIC TOTAL TEMP POTENTIAL TOTALAVG TEMPAVG PRESSURE GPRESSURE VOLUME PRESSAVG GPRESSAVG
ENERGY: 0 6.0101 6.7361 6.3540 0.0000 -10904.5664 1511.2986 0.0000 0.0000 1776.6854 -7597.4823 298.4706 -9374.1677 -7597.4823 298.4706 524.0752 609.1596 30603.2547 524.0752 609.1596
ENERGY: 300000 3.2084 4.6032 9.2110 0.0000 -10967.2864 1520.8621 0.0000 0.0000 1763.1954 -7666.2063 296.2044 -9429.4017 -7578.8702 301.1914 582.4382 564.6216 30327.9992 452.2133 502.8543
ENERGY: 600000 1.5903 6.9831 7.9479 0.0000 -10715.5882 1392.1329 0.0000 0.0000 1818.6079 -7488.3260 305.5133 -9306.9339 -7574.8625 301.9574 26.5947 120.9249 30248.4957 189.7430 250.6609
ENERGY: 900000 8.1723 11.5339 6.2427 0.0000 -10873.3569 1548.2087 0.0000 0.0000 1716.5748 -7582.6245 288.3725 -9299.1993 -7566.1800 299.6718 646.1782 730.5618 30676.9436 118.9323 190.9783
ENERGY: 1200000 4.3766 5.3965 6.5411 0.0000 -10872.0884 1465.9530 0.0000 0.0000 1816.7200 -7573.1011 305.1962 -9389.8211 -7566.6853 300.8094 331.3988 430.9769 29989.5265 54.0801 127.2983
ENERGY: 1500000 6.6514 9.9473 9.6969 0.0000 -10769.9138 1385.7814 0.0000 0.0000 1839.3802 -7518.4567 309.0029 -9357.8368 -7563.7000 301.5562 -535.7700 -454.5578 30537.9479 -14.7040 54.6676
TCL: Running FEP window  10: Lambda1 0.44999999999999996 Lambda2 0.49999999999999994 [dLambda 0.04999999999999999]
TCL: Setting parameter firsttimestep to 0
TCL: Setting parameter alchLambda to 0.44999999999999996
Info: NONBONDED TABLE R-SQUARED SPACING: 0.0625
Info: NONBONDED TABLE SIZE: 705 POINTS
TCL: Setting parameter alchLambda2 to 0.49999999999999994
Info: NONBONDED TABLE R-SQUARED SPACING: 0.0625
Info: NONBONDED TABLE SIZE: 705 POINTS
TCL: Running for 1500000 steps
ETITLE: TS BOND ANGLE DIHED IMPRP ELECT VDW BOUNDARY MISC KINETIC TOTAL TEMP POTENTIAL TOTALAVG TEMPAVG PRESSURE GPRESSURE VOLUME PRESSAVG GPRESSAVG
ENERGY: 0 6.6514 9.9473 9.6969 0.0000 -10769.9129 1386.9181 0.0000 0.0000 1838.5208 -7518.1783 308.8585 -9356.6992 -7518.1783 308.8585 -523.5260 -434.0088 30537.9479 -523.5260 -434.0088
ENERGY: 300000 6.9317 10.1622 6.7711 0.0000 -10870.3184 1440.7142 0.0000 0.0000 1775.5041 -7630.2353 298.2722 -9405.7393 -7561.4740 301.1504 -149.6473 -122.5157 30690.4707 -397.7914 -346.9811
ENERGY: 600000 1.6335 5.7612 6.5850 0.0000 -10872.5472 1450.3249 0.0000 0.0000 1789.4899 -7618.7526 300.6217 -9408.2425 -7576.0771 301.3408 37.8871 137.1499 30498.5865 -308.2035 -235.1860
ENERGY: 900000 4.1348 6.6472 5.3725 0.0000 -10787.6548 1368.2905 0.0000 0.0000 1812.4708 -7590.7390 304.4823 -9403.2098 -7579.0400 301.4680 -750.9593 -643.9699 30823.9599 -319.7920 -246.7582
ENERGY: 1200000 6.1140 9.2323 5.6660 0.0000 -10932.8216 1517.9623 0.0000 0.0000 1794.6760 -7599.1710 301.4929 -9393.8470 -7576.7143 301.3974 372.7955 385.0201 30388.3660 -177.6311 -114.4038
ENERGY: 1500000 2.3334 10.4993 7.3658 0.0000 -10877.9638 1506.7566 0.0000 0.0000 1795.9306 -7555.0781 301.7037 -9351.0087 -7568.5761 301.4718 534.0383 545.6632 30629.9101 -127.7311 -67.6118
TCL: Running FEP window  11: Lambda1 0.49999999999999994 Lambda2 0.5499999999999999 [dLambda 0.04999999999999999]
TCL: Setting parameter firsttimestep to 0
TCL: Setting parameter alchLambda to 0.49999999999999994
Info: NONBONDED TABLE R-SQUARED SPACING: 0.0625
Info: NONBONDED TABLE SIZE: 705 POINTS
TCL: Setting parameter alchLambda2 to 0.5499999999999999
Info: NONBONDED TABLE R-SQUARED SPACING: 0.0625
Info: NONBONDED TABLE SIZE: 705 POINTS
TCL: Running for 1500000 steps
ETITLE: TS BOND ANGLE DIHED IMPRP ELECT VDW BOUNDARY MISC KINETIC TOTAL TEMP POTENTIAL TOTALAVG TEMPAVG PRESSURE GPRESSURE VOLUME PRESSAVG GPRESSAVG
ENERGY: 0 2.3334 10.4993 7.3658 0.0000 -10877.9639 1508.0315 0.0000 0.0000 1795.0592 -7554.6747 301.5573 -9349.7339 -7554.6747 301.5573 478.4165 562.2378 30629.9101 478.4165 562.2378
ENERGY: 300000 2.8801 6.4357 8.0492 0.0000 -10804.9610 1451.3951 0.0000 0.0000 1849.5438 -7486.6573 310.7103 -9336.2010 -7544.1646 302.3742 205.3327 298.3617 30658.2272 -36.5851 24.5621
ENERGY: 600000 6.3880 7.5006 8.7428 0.0000 -10706.4509 1289.3865 0.0000 0.0000 1782.9670 -7611.4660 299.5259 -9394.4330 -7567.1768 301.7031 -1529.7592 -1487.5697 30973.8569 -378.2297 -326.2125
ENERGY: 900000 2.8861 8.4872 5.0519 0.0000 -10855.7336 1503.5825 0.0000 0.0000 1723.5883 -7612.1377 289.5507 -9335.7260 -7577.7889 300.5679 129.2602 251.2091 31018.7424 -299.7511 -230.2800
ENERGY: 1200000 4.6194 9.2292 8.3730 0.0000 -10807.6796 1402.7840 0.0000 0.0000 1822.7641 -7559.9098 306.2115 -9382.6740 -7573.7151 300.9072 -631.8538 -558.1901 31002.7649 -408.2424 -339.6460
ENERGY: 1500000 2.5896 10.9852 3.8588 0.0000 -10742.0385 1380.4114 0.0000 0.0000 1785.1418 -7559.0517 299.8912 -9344.1935 -7574.5339 301.4341 -226.2781 -203.1553 30530.7864 -319.3878 -258.9253
TCL: Running FEP window  12: Lambda1 0.5499999999999999 Lambda2 0.6    [dLambda 0.050000000000000044]
TCL: Setting parameter firsttimestep to 0
TCL: Setting parameter alchLambda to 0.5499999999999999
Info: NONBONDED TABLE R-SQUARED SPACING: 0.0625
Info: NONBONDED TABLE SIZE: 705 POINTS
TCL: Setting parameter alchLambda2 to 0.6
Info: NONBONDED TABLE R-SQUARED SPACING: 0.0625
Info: NONBONDED TABLE SIZE: 705 POINTS
TCL: Running for 1500000 steps
ETITLE: TS BOND ANGLE DIHED IMPRP ELECT VDW BOUNDARY MISC KINETIC TOTAL TEMP POTENTIAL TOTALAVG TEMPAVG PRESSURE GPRESSURE VOLUME PRESSAVG GPRESSAVG
ENERGY: 0 2.5896 10.9852 3.8588 0.0000 -10741.6095 1380.3422 0.0000 0.0000 1784.2453 -7559.5884 299.7406 -9343.8337 -7559.5884 299.7406 -265.3750 -189.0235 30530.7864 -265.3750 -189.0235
ENERGY: 300000 5.4272 10.3601 7.2004 0.0000 -10899.4866 1522.8990 0.0000 0.0000 1776.5686 -7577.0313 298.4510 -9353.5999 -7577.7727 298.7369 445.0319 548.2329 30600.2508 -27.6597 37.6644
ENERGY: 600000 3.7666 7.5474 4.4418 0.0000 -10797.9595 1387.5806 0.0000 0.0000 1838.0114 -7556.6117 308.7730 -9394.6231 -7583.2842 300.1740 -277.9780 -187.7849 30556.7689 -83.6970 -14.4200
ENERGY: 900000 1.9826 8.3267 5.9707 0.0000 -10935.4084 1481.9782 0.0000 0.0000 1810.5361 -7626.6140 304.1573 -9437.1502 -7589.5980 300.3963 225.8515 221.9140 30953.5494 -45.0161 12.6478
ENERGY: 1200000 7.3077 5.0823 6.1395 0.0000 -10960.0917 1536.8166 0.0000 0.0000 1723.7597 -7680.9857 289.5795 -9404.7455 -7597.5488 299.5276 573.6131 633.6732 30715.9548 64.0598 128.6901
ENERGY: 1500000 3.1743 10.1485 8.6883 0.0000 -10879.4714 1452.8120 0.0000 0.0000 1763.3512 -7641.2971 296.2306 -9404.6483 -7597.9381 300.1667 -100.1995 -43.6606 30714.2098 79.3840 135.4866
TCL: Running FEP window  13: Lambda1 0.6    Lambda2 0.65   [dLambda 0.050000000000000044]
TCL: Setting parameter firsttimestep to 0
TCL: Setting parameter alchLambda to 0.6
Info: NONBONDED TABLE R-SQUARED SPACING: 0.0625
Info: NONBONDED TABLE SIZE: 705 POINTS
TCL: Setting parameter alchLambda2 to 0.65
Info: NONBONDED TABLE R-SQUARED SPACING: 0.0625
Info: NONBONDED TABLE SIZE: 705 POINTS
TCL: Running for 1500000 steps
ETITLE: TS BOND ANGLE DIHED IMPRP ELECT VDW BOUNDARY MISC KINETIC TOTAL TEMP POTENTIAL TOTALAVG TEMPAVG PRESSURE GPRESSURE VOLUME PRESSAVG GPRESSAVG
ENERGY: 0 3.1743 10.1485 8.6883 0.0000 -10879.5502 1453.4405 0.0000 0.0000 1762.4675 -7641.6312 296.0821 -9404.0987 -7641.6312 296.0821 -108.9978 -27.6254 30714.2098 -108.9978 -27.6254
ENERGY: 300000 4.0927 8.7921 4.5711 0.0000 -10759.4455 1362.4997 0.0000 0.0000 1750.8196 -7628.6702 294.1253 -9379.4898 -7635.5727 295.0082 -784.7560 -704.3743 30845.8806 -243.1266 -192.5343
ENERGY: 600000 3.9537 7.1561 4.9126 0.0000 -10911.1775 1472.0337 0.0000 0.0000 1805.1521 -7617.9692 303.2528 -9423.1213 -7608.0511 297.1241 -35.7295 112.3110 30335.5519 -76.8059 -1.6646
ENERGY: 900000 1.9197 8.0102 6.9010 0.0000 -10851.4692 1431.8540 0.0000 0.0000 1795.1998 -7607.5845 301.5809 -9402.7842 -7616.6975 297.1270 -139.0770 -107.7306 30938.8911 -38.4053 28.4166
ENERGY: 1200000 4.2359 7.9291 11.7403 0.0000 -10732.3012 1352.4877 0.0000 0.0000 1819.1569 -7536.7512 305.6055 -9355.9082 -7599.4896 298.7695 -301.4530 -270.2794 30342.9677 -51.2846 8.9163
ENERGY: 1500000 3.1711 7.3389 6.1258 0.0000 -10629.5121 1362.5744 0.0000 0.0000 1752.7498 -7497.5522 294.4496 -9250.3019 -7594.4079 298.2356 -713.1902 -599.3721 31451.2225 -68.0534 -3.9979
TCL: Running FEP window  14: Lambda1 0.65   Lambda2 0.7000000000000001 [dLambda 0.050000000000000044]
TCL: Setting parameter firsttimestep to 0
TCL: Setting parameter alchLambda to 0.65
Info: NONBONDED TABLE R-SQUARED SPACING: 0.0625
Info: NONBONDED TABLE SIZE: 705 POINTS
TCL: Setting parameter alchLambda2 to 0.7000000000000001
Info: NONBONDED TABLE R-SQUARED SPACING: 0.0625
Info: NONBONDED TABLE SIZE: 705 POINTS
TCL: Running for 1500000 steps
ETITLE: TS BOND ANGLE DIHED IMPRP ELECT VDW BOUNDARY MISC KINETIC TOTAL TEMP POTENTIAL TOTALAVG TEMPAVG PRESSURE GPRESSURE VOLUME PRESSAVG GPRESSAVG
ENERGY: 0 3.1711 7.3390 6.1258 0.0000 -10630.3238 1363.6480 0.0000 0.0000 1751.8316 -7498.2084 294.2954 -9250.0399 -7498.2084 294.2954 -652.2611 -581.6926 31451.2225 -652.2611 -581.6926
ENERGY: 300000 2.1134 10.8556 4.9624 0.0000 -10944.9391 1489.0040 0.0000 0.0000 1783.9480 -7654.0556 299.6907 -9438.0037 -7618.1275 294.4461 -59.3809 35.9080 30776.4989 -524.4132 -456.1195
ENERGY: 600000 5.1149 9.6195 8.5426 0.0000 -10803.3730 1373.7051 0.0000 0.0000 1792.0258 -7614.3651 301.0477 -9406.3909 -7618.3647 297.3108 -703.7763 -650.1031 30773.7006 -358.4561 -292.1004
ENERGY: 900000 2.5393 5.8399 3.7423 0.0000 -10779.5187 1441.8309 0.0000 0.0000 1739.6753 -7585.8910 292.2532 -9325.5664 -7599.3304 297.9003 -293.1411 -186.8868 31393.9628 -202.5911 -130.5836
ENERGY: 1200000 3.7816 9.8665 5.1608 0.0000 -10662.9315 1349.0377 0.0000 0.0000 1750.2776 -7544.8073 294.0343 -9295.0849 -7587.3308 298.7098 -301.6094 -182.0956 30416.2935 -201.1467 -128.0256
ENERGY: 1500000 3.7035 6.8294 3.9951 0.0000 -10985.6759 1537.1996 0.0000 0.0000 1811.1446 -7622.8037 304.2595 -9433.9483 -7581.6329 300.1376 551.2981 574.6591 30560.3580 -106.5192 -29.4237
TCL: Running FEP window  15: Lambda1 0.7000000000000001 Lambda2 0.7500000000000001 [dLambda 0.050000000000000044]
TCL: Setting parameter firsttimestep to 0
TCL: Setting parameter alchLambda to 0.7000000000000001
Info: NONBONDED TABLE R-SQUARED SPACING: 0.0625
Info: NONBONDED TABLE SIZE: 705 POINTS
TCL: Setting parameter alchLambda2 to 0.7500000000000001
Info: NONBONDED TABLE R-SQUARED SPACING: 0.0625
Info: NONBONDED TABLE SIZE: 705 POINTS
TCL: Running for 1500000 steps
ETITLE: TS BOND ANGLE DIHED IMPRP ELECT VDW BOUNDARY MISC KINETIC TOTAL TEMP POTENTIAL TOTALAVG TEMPAVG PRESSURE GPRESSURE VOLUME PRESSAVG GPRESSAVG
ENERGY: 0 3.7035 6.8294 3.9951 0.0000 -10986.0908 1537.7082 0.0000 0.0000 1810.2682 -7623.5864 304.1123 -9433.8546 -7623.5864 304.1123 505.1467 592.4748 30560.3580 505.1467 592.4748
ENERGY: 300000 6.1927 8.9876 5.9191 0.0000 -10640.9788 1347.8081 0.0000 0.0000 1825.6204 -7446.4508 306.6914 -9272.0712 -7555.6644 303.7939 -634.0343 -585.0640 31205.2003 -203.6544 -117.1246
ENERGY: 600000 4.7667 4.6979 7.9927 0.0000 -10850.8730 1445.6067 0.0000 0.0000 1831.8817 -7555.9273 307.7432 -9387.8090 -7591.9737 302.4381 12.9153 86.3795 30729.3060 21.3098 98.8699
ENERGY: 900000 7.1661 7.2613 7.8837 0.0000 -11017.2313 1584.9851 0.0000 0.0000 1744.9594 -7664.9757 293.1409 -9409.9351 -7592.7344 301.0454 937.8059 974.8042 30489.7045 106.4448 176.2243
ENERGY: 1200000 7.3297 5.7751 9.5611 0.0000 -10714.1837 1388.4653 0.0000 0.0000 1758.7431 -7544.3094 295.4565 -9303.0525 -7577.1170 300.9365 -466.1676 -329.6765 30887.1419 199.3378 272.0788
ENERGY: 1500000 2.8138 10.5020 4.4126 0.0000 -10843.6273 1464.8330 0.0000 0.0000 1745.8668 -7615.1991 293.2933 -9361.0660 -7581.1518 300.4033 192.2942 255.1229 30415.6197 254.1076 322.3099
TCL: Running FEP window  16: Lambda1 0.7500000000000001 Lambda2 0.8000000000000002 [dLambda 0.050000000000000044]
TCL: Setting parameter firsttimestep to 0
TCL: Setting parameter alchLambda to 0.7500000000000001
Info: NONBONDED TABLE R-SQUARED SPACING: 0.0625
Info: NONBONDED TABLE SIZE: 705 POINTS
TCL: Setting parameter alchLambda2 to 0.8000000000000002
Info: NONBONDED TABLE R-SQUARED SPACING: 0.0625
Info: NONBONDED TABLE SIZE: 705 POINTS
TCL: Running for 1500000 steps
ETITLE: TS BOND ANGLE DIHED IMPRP ELECT VDW BOUNDARY MISC KINETIC TOTAL TEMP POTENTIAL TOTALAVG TEMPAVG PRESSURE GPRESSURE VOLUME PRESSAVG GPRESSAVG
ENERGY: 0 2.8138 10.5020 4.4126 0.0000 -10846.0451 1466.6353 0.0000 0.0000 1744.9787 -7616.7027 293.1441 -9361.6814 -7616.7027 293.1441 188.8574 285.2801 30415.6197 188.8574 285.2801
ENERGY: 300000 3.5308 7.9390 5.1084 0.0000 -10805.7028 1455.0833 0.0000 0.0000 1770.7143 -7563.3269 297.4675 -9334.0412 -7607.1941 297.7139 37.9120 175.9893 31050.6479 -43.2140 37.4592
ENERGY: 600000 6.0982 10.6223 6.0007 0.0000 -10864.9312 1457.0866 0.0000 0.0000 1771.1309 -7613.9925 297.5375 -9385.1235 -7607.1698 298.6383 245.3309 321.1997 30392.0798 -19.6770 62.7998
ENERGY: 900000 3.1035 4.7484 6.9199 0.0000 -10826.5604 1407.6503 0.0000 0.0000 1760.0914 -7644.0469 295.6830 -9404.1383 -7598.4929 299.3442 -95.6484 -31.9477 30556.9740 44.0418 116.9999
ENERGY: 1200000 1.4094 7.4635 7.7426 0.0000 -10890.1364 1419.2112 0.0000 0.0000 1748.4160 -7705.8937 293.7216 -9454.3097 -7603.6337 299.8656 -704.3281 -581.9385 30658.4765 -32.6252 44.6999
ENERGY: 1500000 6.1620 8.4490 5.3090 0.0000 -10774.8785 1437.8147 0.0000 0.0000 1755.3567 -7561.7871 294.8876 -9317.1438 -7605.2729 298.8837 -30.8169 20.6888 30579.9364 -35.8165 35.7168
TCL: Running FEP window  17: Lambda1 0.8000000000000002 Lambda2 0.8500000000000002 [dLambda 0.050000000000000044]
TCL: Setting parameter firsttimestep to 0
TCL: Setting parameter alchLambda to 0.8000000000000002
Info: NONBONDED TABLE R-SQUARED SPACING: 0.0625
Info: NONBONDED TABLE SIZE: 705 POINTS
TCL: Setting parameter alchLambda2 to 0.8500000000000002
Info: NONBONDED TABLE R-SQUARED SPACING: 0.0625
Info: NONBONDED TABLE SIZE: 705 POINTS
TCL: Running for 1500000 steps
ETITLE: TS BOND ANGLE DIHED IMPRP ELECT VDW BOUNDARY MISC KINETIC TOTAL TEMP POTENTIAL TOTALAVG TEMPAVG PRESSURE GPRESSURE VOLUME PRESSAVG GPRESSAVG
ENERGY: 0 6.1619 8.4490 5.3090 0.0000 -10776.7249 1437.9154 0.0000 0.0000 1754.4740 -7564.4154 294.7393 -9318.8894 -7564.4154 294.7393 -51.8560 32.7297 30579.9364 -51.8560 32.7297
ENERGY: 300000 5.6214 8.7703 5.8898 0.0000 -10810.7067 1419.3064 0.0000 0.0000 1803.9184 -7567.2004 303.0456 -9371.1188 -7534.1641 302.0533 -339.0393 -293.3169 30958.2708 -442.0944 -355.3011
ENERGY: 600000 4.4356 8.7756 6.7354 0.0000 -10689.2721 1351.7041 0.0000 0.0000 1808.5432 -7509.0782 303.8225 -9317.6214 -7552.2198 303.2028 -455.2117 -325.0608 30447.5822 -417.8168 -321.9428
ENERGY: 900000 1.9048 6.3897 4.8875 0.0000 -10889.3083 1489.6042 0.0000 0.0000 1813.0032 -7573.5188 304.5718 -9386.5220 -7557.2486 303.4837 791.0201 842.4576 30303.5509 -230.0940 -148.2686
ENERGY: 1200000 3.0270 6.3207 6.8544 0.0000 -10879.9805 1409.9037 0.0000 0.0000 1758.5945 -7695.2801 295.4315 -9453.8747 -7563.1603 302.7631 -539.3559 -429.4694 30689.5591 -259.0539 -178.7244
ENERGY: 1500000 3.0993 8.7033 8.0159 0.0000 -10882.4457 1476.7171 0.0000 0.0000 1739.1180 -7646.7922 292.1596 -9385.9102 -7571.4436 302.3989 461.1696 488.1036 30262.5012 -127.8633 -55.1443
TCL: Running FEP window  18: Lambda1 0.8500000000000002 Lambda2 0.9000000000000002 [dLambda 0.050000000000000044]
TCL: Setting parameter firsttimestep to 0
TCL: Setting parameter alchLambda to 0.8500000000000002
Info: NONBONDED TABLE R-SQUARED SPACING: 0.0625
Info: NONBONDED TABLE SIZE: 705 POINTS
TCL: Setting parameter alchLambda2 to 0.9000000000000002
Info: NONBONDED TABLE R-SQUARED SPACING: 0.0625
Info: NONBONDED TABLE SIZE: 705 POINTS
TCL: Running for 1500000 steps
ETITLE: TS BOND ANGLE DIHED IMPRP ELECT VDW BOUNDARY MISC KINETIC TOTAL TEMP POTENTIAL TOTALAVG TEMPAVG PRESSURE GPRESSURE VOLUME PRESSAVG GPRESSAVG
ENERGY: 0 3.0992 8.7033 8.0159 0.0000 -10884.6733 1476.9658 0.0000 0.0000 1738.2258 -7649.6633 292.0097 -9387.8891 -7649.6633 292.0097 437.9324 507.1258 30262.5012 437.9324 507.1258
ENERGY: 300000 6.2401 11.0371 9.0005 0.0000 -10823.4778 1430.7748 0.0000 0.0000 1787.7599 -7578.6654 300.3311 -9366.4253 -7605.7575 296.0771 -140.9088 -88.2207 30797.2010 18.4813 76.5897
ENERGY: 600000 4.4216 7.8365 8.5257 0.0000 -10835.1546 1477.1946 0.0000 0.0000 1781.5313 -7555.6448 299.2847 -9337.1761 -7586.4090 299.2403 -50.0412 -23.3495 31454.5638 108.5551 169.3590
ENERGY: 900000 3.4221 4.8753 6.1983 0.0000 -10810.1089 1438.1923 0.0000 0.0000 1799.9794 -7557.4414 302.3839 -9357.4209 -7598.0034 299.2781 103.6051 195.1145 30705.9007 56.5716 121.8544
ENERGY: 1200000 4.5883 6.0099 6.5562 0.0000 -10878.1999 1473.2070 0.0000 0.0000 1762.7507 -7625.0879 296.1297 -9387.8386 -7587.7495 300.5634 18.9597 88.2200 30567.7446 98.0230 162.5127
ENERGY: 1500000 2.5841 5.6680 10.2477 0.0000 -10835.9114 1410.1079 0.0000 0.0000 1756.0248 -7651.2789 294.9998 -9407.3037 -7599.6551 299.9737 -336.3736 -291.1055 30798.9648 51.0223 107.3107
TCL: Running FEP window  19: Lambda1 0.9000000000000002 Lambda2 0.9500000000000003 [dLambda 0.050000000000000044]
TCL: Setting parameter firsttimestep to 0
TCL: Setting parameter alchLambda to 0.9000000000000002
Info: NONBONDED TABLE R-SQUARED SPACING: 0.0625
Info: NONBONDED TABLE SIZE: 705 POINTS
TCL: Setting parameter alchLambda2 to 0.9500000000000003
Info: NONBONDED TABLE R-SQUARED SPACING: 0.0625
Info: NONBONDED TABLE SIZE: 705 POINTS
TCL: Running for 1500000 steps
ETITLE: TS BOND ANGLE DIHED IMPRP ELECT VDW BOUNDARY MISC KINETIC TOTAL TEMP POTENTIAL TOTALAVG TEMPAVG PRESSURE GPRESSURE VOLUME PRESSAVG GPRESSAVG
ENERGY: 0 2.5841 5.6680 10.2477 0.0000 -10838.5017 1410.6216 0.0000 0.0000 1755.0961 -7654.2843 294.8438 -9409.3804 -7654.2843 294.8438 -357.1626 -277.1916 30798.9648 -357.1626 -277.1916
ENERGY: 300000 3.5772 6.3898 6.7418 0.0000 -10767.1109 1468.6668 0.0000 0.0000 1816.0086 -7465.7267 305.0767 -9281.7353 -7596.3043 299.2429 701.2574 785.8200 30682.0982 272.0254 328.2406
ENERGY: 600000 2.4674 11.9525 8.7179 0.0000 -10948.7585 1515.3161 0.0000 0.0000 1753.9431 -7656.3615 294.6501 -9410.3046 -7589.9380 298.7939 417.7606 436.9462 30639.3341 288.1927 342.1125
ENERGY: 900000 3.2446 7.7888 9.2311 0.0000 -10888.3898 1442.8726 0.0000 0.0000 1788.3035 -7636.9493 300.4224 -9425.2528 -7596.1506 297.8011 -290.6727 -254.4132 31030.2894 120.5424 167.8890
ENERGY: 1200000 4.3116 7.0794 7.1928 0.0000 -10884.5584 1480.2434 0.0000 0.0000 1843.0114 -7542.7197 309.6129 -9385.7311 -7582.7974 299.3606 480.6336 569.0972 30634.4410 243.9326 298.0197
ENERGY: 1500000 1.5583 8.0552 4.1999 0.0000 -10756.3403 1433.4312 0.0000 0.0000 1750.2378 -7558.8579 294.0276 -9309.0957 -7586.8103 298.6627 434.8113 390.7027 30532.9334 185.4000 231.1452
TCL: Running FEP window  20: Lambda1 0.9500000000000003 Lambda2 1.0    [dLambda 0.04999999999999971]
TCL: Setting parameter firsttimestep to 0
TCL: Setting parameter alchLambda to 0.9500000000000003
Info: NONBONDED TABLE R-SQUARED SPACING: 0.0625
Info: NONBONDED TABLE SIZE: 705 POINTS
TCL: Setting parameter alchLambda2 to 1.0
Info: NONBONDED TABLE R-SQUARED SPACING: 0.0625
Info: NONBONDED TABLE SIZE: 705 POINTS
TCL: Running for 1500000 steps
ETITLE: TS BOND ANGLE DIHED IMPRP ELECT VDW BOUNDARY MISC KINETIC TOTAL TEMP POTENTIAL TOTALAVG TEMPAVG PRESSURE GPRESSURE VOLUME PRESSAVG GPRESSAVG
ENERGY: 0 1.5583 8.0552 4.1999 0.0000 -10757.9292 1434.6245 0.0000 0.0000 1749.3509 -7560.1404 293.8786 -9309.4912 -7560.1404 293.8786 359.1329 423.8865 30532.9334 359.1329 423.8865
ENERGY: 300000 5.2937 11.1424 6.1902 0.0000 -10686.3727 1313.4665 0.0000 0.0000 1803.3867 -7546.8932 302.9562 -9350.2798 -7614.2618 296.1548 -1283.3484 -1199.1042 31028.0784 -180.7479 -86.0286
ENERGY: 600000 4.0538 4.8633 4.4213 0.0000 -10918.1361 1557.5822 0.0000 0.0000 1817.8831 -7529.3323 305.3915 -9347.2154 -7587.2077 298.8614 797.4382 809.7283 30854.2357 3.3974 71.9404
ENERGY: 900000 5.6701 7.3235 5.2340 0.0000 -10888.0732 1471.6052 0.0000 0.0000 1805.9169 -7592.3235 303.3813 -9398.2404 -7572.9073 299.1502 -15.7573 34.2089 31247.5896 -33.3827 35.8573
ENERGY: 1200000 5.5089 8.8773 9.3293 0.0000 -10703.6700 1309.0785 0.0000 0.0000 1754.7227 -7616.1533 294.7811 -9370.8760 -7594.9689 298.3431 -1187.3951 -1138.0046 31001.2564 -80.9597 -10.7651
ENERGY: 1500000 4.8138 7.6170 8.1363 0.0000 -10745.0921 1383.6070 0.0000 0.0000 1805.4841 -7535.4340 303.3086 -9340.9181 -7592.4893 298.3935 -353.3143 -313.1708 30749.6393 -114.9190 -51.2699
TCL: Exiting due to exit command.
