Info: SIMULATION PARAMETERS:
Info: TIMESTEP               2
Info: NUMBER OF STEPS        0
Info: STEPS PER CYCLE        10
Info: PERIODIC CELL BASIS 1  31.6713 0 0
Info: PERIODIC CELL BASIS 2  0 30.0917 0
Info: PERIODIC CELL BASIS 3  0 0 31.944
Info: PERIODIC CELL CENTER   0 0 0
Info: WRAPPING WATERS AROUND PERIODIC BOUNDARIES ON OUTPUT.
Info: WRAPPING ALL CLUSTERS AROUND PERIODIC BOUNDARIES ON OUTPUT.
Info: FIRST LDB TIMESTEP     50
Info: LAST LDB TIMESTEP     -1
Info: HOM BACKGROUND SCALING 1
Info: PME BACKGROUND SCALING 1
Info: MIN ATOMS PER PATCH    40
Info: EMPTY PATCH LOAD       40 ATOMS
Info: VELOCITY FILE          mobley_5973402_equil.vel
Info: CENTER OF MASS MOVING INITIALLY? NO
Info: DIELECTRIC             1
Info: EXCLUDE                SCALED ONE-FOUR
Info: 1-4 ELECTROSTATICS SCALED BY 0.833333
Info: MODIFIED 1-4 VDW PARAMETERS WILL BE USED
Info: DCD FILENAME           mobley_5973402_prod.dcd
Info: DCD FREQUENCY          100000
Info: DCD FIRST STEP         100000
Info: DCD FILE WILL CONTAIN UNIT CELL DATA
Info: XST FILENAME           mobley_5973402_prod.xst
Info: XST FREQUENCY          100000
Info: NO VELOCITY DCD OUTPUT
Info: NO FORCE DCD OUTPUT
Info: OUTPUT FILENAME        mobley_5973402_prod
Info: BINARY OUTPUT FILES WILL BE USED
Info: RESTART FILENAME       mobley_5973402_prod.restart
Info: RESTART FREQUENCY      100000
Info: BINARY RESTART FILES WILL BE USED
Info: CUTOFF                 9
Info: PAIRLIST DISTANCE      11
Info: PAIRLIST SHRINK RATE   0.01
Info: PAIRLIST GROW RATE     0.01
Info: PAIRLIST TRIGGER       0.3
Info: PAIRLISTS PER CYCLE    2
Info: PAIRLISTS ENABLED
Info: MARGIN                 2
Info: HYDROGEN GROUP CUTOFF  2.5
Info: PATCH DIMENSION        15.5
Info: ENERGY OUTPUT STEPS    100000
Info: ENERGY EVALUATION STEPS    100000
Info: OUTPUT ENERGY PRECISION 4
Info: CROSSTERM ENERGY INCLUDED IN DIHEDRAL
Info: TIMING OUTPUT STEPS    1000000
Info: PRESSURE OUTPUT STEPS  100000
Info: ALCHEMICAL FEP ON
Info: FEP CURRENT LAMBDA VALUE     0
Info: FEP COMPARISON LAMBDA VALUE  0.05
Info: FEP INTRA-ALCHEMICAL NON-BONDED INTERACTIONS WILL BE RETAINED
Info: FEP INTRA-ALCHEMICAL BONDED INTERACTIONS WILL BE RETAINED
Info: FEP VDW SHIFTING COEFFICIENT 5
Info: FEP ELEC. ACTIVE FOR ANNIHILATED PARTICLES BETWEEN LAMBDA = 0 AND LAMBDA = 0.5
Info: FEP ELEC. ACTIVE FOR EXNIHILATED PARTICLES BETWEEN LAMBDA = 0.5 AND LAMBDA = 1
Info: FEP VDW ACTIVE FOR ANNIHILATED PARTICLES BETWEEN LAMBDA = 0 AND LAMBDA = 1
Info: FEP VDW ACTIVE FOR EXNIHILATED PARTICLES BETWEEN LAMBDA = 0 AND LAMBDA = 1
Info: FEP BOND ACTIVE FOR ANNIHILATED PARTICLES BETWEEN LAMBDA = 1 AND LAMBDA = 1
Info: FEP BOND ACTIVE FOR EXNIHILATED PARTICLES BETWEEN LAMBDA = 0 AND LAMBDA = 0
Info: LANGEVIN DYNAMICS ACTIVE
Info: LANGEVIN TEMPERATURE   300
Info: LANGEVIN USING BBK INTEGRATOR
Info: LANGEVIN DAMPING COEFFICIENT IS 1 INVERSE PS
Info: LANGEVIN DYNAMICS APPLIED TO HYDROGENS
Info: LANGEVIN PISTON PRESSURE CONTROL ACTIVE
Info:        TARGET PRESSURE IS 1.01325 BAR
Info:     OSCILLATION PERIOD IS 50 FS
Info:             DECAY TIME IS 25 FS
Info:     PISTON TEMPERATURE IS 300 K
Info:       PRESSURE CONTROL IS GROUP-BASED
Info:    INITIAL STRAIN RATE IS 8.66698e-05 8.66698e-05 8.66698e-05
Info:       CELL FLUCTUATION IS ISOTROPIC
Info: PARTICLE MESH EWALD (PME) ACTIVE
Info: PME TOLERANCE               1e-06
Info: PME EWALD COEFFICIENT       0.348832
Info: PME INTERPOLATION ORDER     4
Info: PME GRID DIMENSIONS         32 32 32
Info: PME MAXIMUM GRID SPACING    1
Info: PME CALCULATION WILL BE PERFORMED ON GPU
Info: FULL ELECTROSTATIC EVALUATION FREQUENCY      2
Info: USING VERLET I (r-RESPA) MTS SCHEME.
Info: C1 SPLITTING OF LONG RANGE ELECTROSTATICS
Info: PLACING ATOMS IN PATCHES BY HYDROGEN GROUPS
Info: RIGID BONDS TO HYDROGEN : ALL
Info:         ERROR TOLERANCE : 1e-08
Info:          MAX ITERATIONS : 100
Info: RIGID WATER USING SETTLE ALGORITHM
Info: RANDOM NUMBER SEED     1743851391
Info: USE HYDROGEN BONDS?    NO
Info: Using AMBER format force field!
Info: AMBER PARM FILE        mobley_5973402.prmtop
Info: COORDINATE PDB         mobley_5973402.pdb
Info: Exclusions will be read from PARM file!
Info: SCNB (VDW SCALING)     2
Info: USING ARITHMETIC MEAN TO COMBINE L-J SIGMA PARAMETERS
Info: BINARY COORDINATES     mobley_5973402_equil.coor
Info: SUMMARY OF PARAMETERS:
Info: 7 BONDS
Info: 8 ANGLES
Info:   8 HARMONIC
Info:   0 COSINE-BASED
Info: 9 DIHEDRAL
Info: 0 IMPROPER
Info: 0 CROSSTERM
Info: 0 VDW
Info: 21 VDW_PAIRS
Info: 0 NBTHOLE_PAIRS
Info: To read alchdata from file: mobley_5973402.pdb
Info: To read alchflag data from column: 5
Info: STRUCTURE SUMMARY:
Info: 2955 ATOMS
Info: 2954 BONDS
Info: 31 ANGLES
Info: 46 DIHEDRALS
Info: 0 IMPROPERS
Info: 0 CROSSTERMS
Info: 3024 EXCLUSIONS
Info: 2949 RIGID BONDS
Info: ALCH: 0 ATOMS TO DISAPPEAR IN FINAL STATE
Info: ALCH: 18 ATOMS TO APPEAR IN FINAL STATE
Info: 5916 DEGREES OF FREEDOM
Info: 985 HYDROGEN GROUPS
Info: 4 ATOMS IN LARGEST HYDROGEN GROUP
Info: 985 MIGRATION GROUPS
Info: 4 ATOMS IN LARGEST MIGRATION GROUP
Info: TOTAL MASS = 17725.8 amu
Info: TOTAL CHARGE = -9.99942e-05 e
Info: MASS DENSITY = 0.966857 g/cm^3
Info: ATOM DENSITY = 0.0970631 atoms/A^3
Info: ADDED 0 IMPLICIT EXCLUSIONS
Info: NONBONDED TABLE R-SQUARED SPACING: 0.0625
Info: NONBONDED TABLE SIZE: 705 POINTS
Info: REMOVING COM VELOCITY 0.044125 0.0344608 0.0631092
Info: Use 3D box decompostion in PME FFT.
Info: Updated CUDA force table with 4096 elements.
Info: Updated CUDA LJ table with 6 x 6 elements.
Info: Found 21 unique exclusion lists needing 56 bytes
TCL: Running for 1500000 steps
ETITLE: TS BOND ANGLE DIHED IMPRP ELECT VDW BOUNDARY MISC KINETIC TOTAL TEMP POTENTIAL TOTALAVG TEMPAVG PRESSURE GPRESSURE VOLUME PRESSAVG GPRESSAVG
ENERGY: 0 1.0365 11.2755 3.4581 0.0000 -10739.1948 1436.6610 0.0000 0.0000 1774.0808 -7512.6830 301.8114 -9286.7638 -7512.6830 301.8114 -242.1389 -147.4684 30444.1055 -242.1389 -147.4684
ENERGY: 300000 2.5415 10.2900 2.3918 0.0000 -10705.7581 1434.6622 0.0000 0.0000 1784.0377 -7471.8348 303.5053 -9255.8725 -7486.6460 299.8046 -3.8663 18.5146 29920.2778 -146.4455 -75.0986
ENERGY: 600000 1.6035 6.2079 5.6035 0.0000 -10674.7845 1458.6113 0.0000 0.0000 1813.8587 -7388.8995 308.5785 -9202.7582 -7479.6868 300.4519 143.6472 194.0197 30380.0702 90.3699 168.6031
ENERGY: 900000 2.1162 6.7271 4.1469 0.0000 -10540.8819 1371.7397 0.0000 0.0000 1785.2490 -7370.9028 303.7114 -9156.1519 -7475.1695 302.3538 -623.0541 -559.6681 31129.5625 -15.1658 51.8498
ENERGY: 1200000 1.7731 8.8968 3.1782 0.0000 -10700.8618 1468.1872 0.0000 0.0000 1748.6877 -7470.1388 297.4914 -9218.8265 -7473.5564 302.0396 180.6981 148.8004 30462.1519 17.7225 75.6353
ENERGY: 1500000 0.9239 6.3128 2.9081 0.0000 -10697.6448 1460.3896 0.0000 0.0000 1755.1782 -7471.9323 298.5956 -9227.1105 -7465.8799 302.3551 162.6345 158.4027 30494.6432 28.7459 85.7991
TCL: Running FEP window   2: Lambda1 0.05   Lambda2 0.1    [dLambda 0.05  ]
TCL: Setting parameter firsttimestep to 0
TCL: Setting parameter alchLambda to 0.05
Info: NONBONDED TABLE R-SQUARED SPACING: 0.0625
Info: NONBONDED TABLE SIZE: 705 POINTS
TCL: Setting parameter alchLambda2 to 0.1
Info: NONBONDED TABLE R-SQUARED SPACING: 0.0625
Info: NONBONDED TABLE SIZE: 705 POINTS
TCL: Running for 1500000 steps
ETITLE: TS BOND ANGLE DIHED IMPRP ELECT VDW BOUNDARY MISC KINETIC TOTAL TEMP POTENTIAL TOTALAVG TEMPAVG PRESSURE GPRESSURE VOLUME PRESSAVG GPRESSAVG
ENERGY: 0 0.9239 6.3128 2.9081 0.0000 -10697.6439 1461.6593 0.0000 0.0000 1754.3390 -7471.5008 298.4529 -9225.8398 -7471.5008 298.4529 77.5819 164.9111 30494.6432 77.5819 164.9111
ENERGY: 300000 0.1943 7.1009 2.7618 0.0000 -10660.3575 1484.8216 0.0000 0.0000 1822.6469 -7342.8320 310.0736 -9165.4789 -7475.7942 298.9867 604.4669 685.2939 30242.7415 196.7998 298.6552
ENERGY: 600000 2.0490 10.6274 2.4106 0.0000 -10784.5224 1490.1436 0.0000 0.0000 1781.8238 -7497.4679 303.1286 -9279.2917 -7480.3826 299.5751 333.0725 375.9571 30139.1483 91.0800 170.2220
ENERGY: 900000 3.0511 5.6418 2.0106 0.0000 -10731.1455 1462.8400 0.0000 0.0000 1745.5371 -7512.0648 296.9555 -9257.6019 -7486.6169 300.6410 -61.3161 -35.1913 30551.0991 -17.3961 50.6449
ENERGY: 1200000 1.1463 7.6844 2.3230 0.0000 -10808.8109 1464.2605 0.0000 0.0000 1751.6480 -7581.7486 297.9951 -9333.3967 -7493.0860 300.5472 -15.3409 64.1221 29923.3384 -55.3332 12.9761
ENERGY: 1500000 0.6927 7.1567 3.8469 0.0000 -10621.6933 1368.6910 0.0000 0.0000 1762.3054 -7479.0006 299.8081 -9241.3059 -7496.7470 299.7502 -576.5675 -513.4125 30331.3212 -109.6841 -45.6712
TCL: Running FEP window   3: Lambda1 0.1    Lambda2 0.15000000000000002 [dLambda 0.05000000000000002]
TCL: Setting parameter firsttimestep to 0
TCL: Setting parameter alchLambda to 0.1
Info: NONBONDED TABLE R-SQUARED SPACING: 0.0625
Info: NONBONDED TABLE SIZE: 705 POINTS
TCL: Setting parameter alchLambda2 to 0.15000000000000002
Info: NONBONDED TABLE R-SQUARED SPACING: 0.0625
Info: NONBONDED TABLE SIZE: 705 POINTS
TCL: Running for 1500000 steps
ETITLE: TS BOND ANGLE DIHED IMPRP ELECT VDW BOUNDARY MISC KINETIC TOTAL TEMP POTENTIAL TOTALAVG TEMPAVG PRESSURE GPRESSURE VOLUME PRESSAVG GPRESSAVG
ENERGY: 0 0.6927 7.1567 3.8469 0.0000 -10621.6932 1369.9869 0.0000 0.0000 1761.3876 -7478.6223 299.6520 -9240.0100 -7478.6223 299.6520 -595.9884 -505.6455 30331.3212 -595.9884 -505.6455
ENERGY: 300000 0.8638 9.3812 3.5574 0.0000 -10804.5340 1525.8765 0.0000 0.0000 1782.9800 -7481.8751 303.3253 -9264.8551 -7454.6575 301.0562 607.3791 691.5921 29951.9804 -213.8357 -123.2215
ENERGY: 600000 0.2443 6.7757 3.2655 0.0000 -10744.7193 1444.3296 0.0000 0.0000 1705.8765 -7584.2277 290.2083 -9290.1042 -7483.1082 300.4402 56.1146 53.6400 29901.9515 -169.0573 -94.5342
ENERGY: 900000 0.6730 8.2322 4.2181 0.0000 -10741.2943 1500.4473 0.0000 0.0000 1730.5208 -7497.2028 294.4008 -9227.7236 -7472.4214 300.1193 441.7363 490.5020 30404.5233 -78.9981 8.0283
ENERGY: 1200000 3.8037 6.9876 2.1488 0.0000 -10754.0228 1485.1855 0.0000 0.0000 1713.0663 -7542.8310 291.4314 -9255.8973 -7486.2671 299.4091 251.6775 310.1903 30009.7386 -81.8505 8.4582
ENERGY: 1500000 3.7852 5.9955 3.0816 0.0000 -10810.9180 1490.2893 0.0000 0.0000 1769.4715 -7538.2950 301.0272 -9307.7665 -7489.1431 299.2046 297.2883 378.2902 30045.3650 -64.0075 27.5921
TCL: Running FEP window   4: Lambda1 0.15000000000000002 Lambda2 0.2    [dLambda 0.04999999999999999]
TCL: Setting parameter firsttimestep to 0
TCL: Setting parameter alchLambda to 0.15000000000000002
Info: NONBONDED TABLE R-SQUARED SPACING: 0.0625
Info: NONBONDED TABLE SIZE: 705 POINTS
TCL: Setting parameter alchLambda2 to 0.2
Info: NONBONDED TABLE R-SQUARED SPACING: 0.0625
Info: NONBONDED TABLE SIZE: 705 POINTS
TCL: Running for 1500000 steps
ETITLE: TS BOND ANGLE DIHED IMPRP ELECT VDW BOUNDARY MISC KINETIC TOTAL TEMP POTENTIAL TOTALAVG TEMPAVG PRESSURE GPRESSURE VOLUME PRESSAVG GPRESSAVG
ENERGY: 0 3.7852 5.9955 3.0816 0.0000 -10810.9197 1491.6804 0.0000 0.0000 1768.5797 -7537.7973 300.8755 -9306.3771 -7537.7973 300.8755 309.5500 386.4818 30045.3650 309.5500 386.4818
ENERGY: 300000 1.0079 6.2478 2.3869 0.0000 -10752.5618 1502.5160 0.0000 0.0000 1746.8141 -7493.5893 297.1727 -9240.4033 -7485.2272 301.2004 480.3122 463.7943 30469.9032 313.8085 363.3140
ENERGY: 600000 0.7320 9.6100 2.7900 0.0000 -10726.1512 1423.0497 0.0000 0.0000 1782.9558 -7507.0137 303.3212 -9289.9694 -7490.8528 302.0770 -273.8274 -285.9464 30371.9313 126.5279 174.2733
ENERGY: 900000 1.6684 8.5798 2.7482 0.0000 -10864.3013 1563.9306 0.0000 0.0000 1814.5754 -7472.7990 308.7004 -9287.3744 -7492.6559 302.2884 948.6769 1035.5417 30099.5524 234.5967 286.3243
ENERGY: 1200000 3.1409 6.7990 2.9916 0.0000 -10834.1322 1541.3338 0.0000 0.0000 1798.2527 -7481.6143 305.9236 -9279.8670 -7485.1052 302.2271 858.7144 926.6157 29806.9738 184.0571 241.1934
ENERGY: 1500000 0.8628 11.8217 3.2499 0.0000 -10737.8506 1490.9266 0.0000 0.0000 1782.8535 -7448.1360 303.3038 -9230.9895 -7482.2055 302.5829 638.4171 690.7244 29863.3929 217.8394 278.2629
TCL: Running FEP window   5: Lambda1 0.2    Lambda2 0.25   [dLambda 0.04999999999999999]
TCL: Setting parameter firsttimestep to 0
TCL: Setting parameter alchLambda to 0.2
Info: NONBONDED TABLE R-SQUARED SPACING: 0.0625
Info: NONBONDED TABLE SIZE: 705 POINTS
TCL: Setting parameter alchLambda2 to 0.25
Info: NONBONDED TABLE R-SQUARED SPACING: 0.0625
Info: NONBONDED TABLE SIZE: 705 POINTS
TCL: Running for 1500000 steps
ETITLE: TS BOND ANGLE DIHED IMPRP ELECT VDW BOUNDARY MISC KINETIC TOTAL TEMP POTENTIAL TOTALAVG TEMPAVG PRESSURE GPRESSURE VOLUME PRESSAVG GPRESSAVG
ENERGY: 0 0.8628 11.8217 3.2499 0.0000 -10737.8499 1491.6590 0.0000 0.0000 1781.9865 -7448.2700 303.1563 -9230.2564 -7448.2700 303.1563 622.7041 700.2059 29863.3929 622.7041 700.2059
ENERGY: 300000 1.9775 9.8344 3.5669 0.0000 -10608.6683 1393.8421 0.0000 0.0000 1768.7249 -7430.7225 300.9002 -9199.4474 -7456.9378 302.4017 41.4618 20.4311 29897.6066 60.0499 114.6834
ENERGY: 600000 1.3252 10.6140 2.2619 0.0000 -10657.4067 1380.2250 0.0000 0.0000 1753.3242 -7509.6564 298.2802 -9262.9806 -7462.3490 302.6392 -812.0173 -727.4874 30763.0512 48.5206 101.5912
ENERGY: 900000 2.2688 6.7002 2.8801 0.0000 -10603.5841 1388.0709 0.0000 0.0000 1770.4335 -7433.2306 301.1909 -9203.6641 -7474.7871 301.4923 -432.9611 -366.5233 30505.7084 43.5966 97.3399
ENERGY: 1200000 0.8863 9.0564 2.8535 0.0000 -10653.5061 1382.2639 0.0000 0.0000 1789.9671 -7468.4788 304.5140 -9258.4459 -7481.7361 300.7144 -230.1961 -190.5400 29836.6061 -48.7855 -0.1564
ENERGY: 1500000 4.2579 9.7275 2.9459 0.0000 -10702.0362 1401.5513 0.0000 0.0000 1770.0954 -7513.4582 301.1334 -9283.5536 -7480.0026 300.3966 -136.6166 -83.5680 29870.4073 -64.6773 -15.6672
TCL: Running FEP window   6: Lambda1 0.25   Lambda2 0.3    [dLambda 0.04999999999999999]
TCL: Setting parameter firsttimestep to 0
TCL: Setting parameter alchLambda to 0.25
Info: NONBONDED TABLE R-SQUARED SPACING: 0.0625
Info: NONBONDED TABLE SIZE: 705 POINTS
TCL: Setting parameter alchLambda2 to 0.3
Info: NONBONDED TABLE R-SQUARED SPACING: 0.0625
Info: NONBONDED TABLE SIZE: 705 POINTS
TCL: Running for 1500000 steps
ETITLE: TS BOND ANGLE DIHED IMPRP ELECT VDW BOUNDARY MISC KINETIC TOTAL TEMP POTENTIAL TOTALAVG TEMPAVG PRESSURE GPRESSURE VOLUME PRESSAVG GPRESSAVG
ENERGY: 0 4.2579 9.7275 2.9459 0.0000 -10702.0366 1402.0068 0.0000 0.0000 1769.1296 -7513.9688 300.9691 -9283.0985 -7513.9688 300.9691 -175.5617 -83.4076 29870.4073 -175.5617 -83.4076
ENERGY: 300000 1.4592 6.2783 2.6724 0.0000 -10696.3944 1411.9244 0.0000 0.0000 1816.4752 -7457.5850 309.0236 -9274.0602 -7473.0752 307.0745 -396.5437 -311.7800 30233.2354 219.5349 280.6376
ENERGY: 600000 0.3724 8.1786 2.6492 0.0000 -10673.5799 1442.1849 0.0000 0.0000 1755.1203 -7465.0744 298.5858 -9220.1948 -7467.7546 303.4226 103.7286 148.2560 30186.8683 64.0491 106.3114
ENERGY: 900000 2.4661 8.1018 2.6168 0.0000 -10883.2731 1575.3126 0.0000 0.0000 1725.6460 -7569.1298 293.5715 -9294.7757 -7463.6604 302.7748 997.6695 1057.2091 30178.5818 303.6726 351.6518
ENERGY: 1200000 0.1652 6.2517 3.1166 0.0000 -10457.4456 1322.7941 0.0000 0.0000 1754.6338 -7370.4843 298.5030 -9125.1181 -7466.8859 302.3876 -707.0328 -698.3722 31042.5129 155.0882 200.0292
ENERGY: 1500000 1.2982 7.9816 4.2448 0.0000 -10647.6521 1412.9947 0.0000 0.0000 1788.4484 -7432.6845 304.2556 -9221.1328 -7461.7408 302.8370 -83.1191 52.1710 30000.3294 136.4820 185.1823
TCL: Running FEP window   7: Lambda1 0.3    Lambda2 0.35   [dLambda 0.04999999999999999]
TCL: Setting parameter firsttimestep to 0
TCL: Setting parameter alchLambda to 0.3
Info: NONBONDED TABLE R-SQUARED SPACING: 0.0625
Info: NONBONDED TABLE SIZE: 705 POINTS
TCL: Setting parameter alchLambda2 to 0.35
Info: NONBONDED TABLE R-SQUARED SPACING: 0.0625
Info: NONBONDED TABLE SIZE: 705 POINTS
TCL: Running for 1500000 steps
ETITLE: TS BOND ANGLE DIHED IMPRP ELECT VDW BOUNDARY MISC KINETIC TOTAL TEMP POTENTIAL TOTALAVG TEMPAVG PRESSURE GPRESSURE VOLUME PRESSAVG GPRESSAVG
ENERGY: 0 1.2982 7.9816 4.2448 0.0000 -10647.6526 1413.2353 0.0000 0.0000 1787.6155 -7433.2772 304.1139 -9220.8926 -7433.2772 304.1139 -40.5676 55.5511 30000.3294 -40.5676 55.5511
ENERGY: 300000 1.3951 11.4635 3.0078 0.0000 -10723.2521 1483.2264 0.0000 0.0000 1741.8589 -7482.3004 296.3297 -9224.1592 -7461.5994 300.5753 255.8673 338.3473 30566.0967 -204.5262 -133.9790
ENERGY: 600000 0.6096 8.8828 2.7100 0.0000 -10758.8705 1444.5851 0.0000 0.0000 1726.6605 -7575.4225 293.7441 -9302.0830 -7486.1284 298.6297 -150.3984 -81.9860 30157.2281 -273.8460 -214.6168
ENERGY: 900000 3.0526 7.8650 3.0226 0.0000 -10681.0732 1443.7238 0.0000 0.0000 1770.1836 -7453.2257 301.1484 -9223.4093 -7482.3122 298.6624 250.3222 285.8737 30104.2489 -202.7783 -147.7061
ENERGY: 1200000 2.5500 7.3860 2.4522 0.0000 -10726.7365 1506.3763 0.0000 0.0000 1743.1677 -7464.8044 296.5524 -9207.9721 -7481.7633 298.6969 301.5132 405.2750 30701.3496 -105.3283 -48.7770
ENERGY: 1500000 1.2480 8.5615 3.3704 0.0000 -10644.6152 1401.8165 0.0000 0.0000 1778.7639 -7450.8549 302.6081 -9229.6188 -7480.4265 299.5112 1.6425 95.2626 29860.6319 -102.8499 -46.7515
TCL: Running FEP window   8: Lambda1 0.35   Lambda2 0.39999999999999997 [dLambda 0.04999999999999999]
TCL: Setting parameter firsttimestep to 0
TCL: Setting parameter alchLambda to 0.35
Info: NONBONDED TABLE R-SQUARED SPACING: 0.0625
Info: NONBONDED TABLE SIZE: 705 POINTS
TCL: Setting parameter alchLambda2 to 0.39999999999999997
Info: NONBONDED TABLE R-SQUARED SPACING: 0.0625
Info: NONBONDED TABLE SIZE: 705 POINTS
TCL: Running for 1500000 steps
ETITLE: TS BOND ANGLE DIHED IMPRP ELECT VDW BOUNDARY MISC KINETIC TOTAL TEMP POTENTIAL TOTALAVG TEMPAVG PRESSURE GPRESSURE VOLUME PRESSAVG GPRESSAVG
ENERGY: 0 1.2480 8.5615 3.3704 0.0000 -10644.6146 1402.4591 0.0000 0.0000 1777.8880 -7451.0874 302.4591 -9228.9755 -7451.0874 302.4591 14.7475 106.3178 29860.6319 14.7475 106.3178
ENERGY: 300000 1.6236 9.1682 5.3748 0.0000 -10710.6506 1455.9783 0.0000 0.0000 1712.6853 -7525.8204 291.3666 -9238.5057 -7462.9195 300.3559 107.2139 169.2646 30297.6453 -99.7777 8.1077
ENERGY: 600000 2.6233 10.6221 3.6154 0.0000 -10614.0254 1439.6845 0.0000 0.0000 1756.9766 -7400.5035 298.9016 -9157.4801 -7444.6439 300.0204 171.6101 243.7709 30479.8634 -27.0640 61.2600
ENERGY: 900000 1.6545 9.7198 2.7002 0.0000 -10672.2720 1461.8538 0.0000 0.0000 1765.9192 -7430.4246 300.4229 -9196.3437 -7448.6139 299.2363 459.2479 530.6399 30334.8823 15.9811 111.6191
ENERGY: 1200000 1.3280 5.7021 2.6155 0.0000 -10650.0853 1392.5210 0.0000 0.0000 1793.1688 -7454.7499 305.0587 -9247.9187 -7448.2068 300.3503 -32.6807 0.3444 29732.9941 56.8058 137.9283
ENERGY: 1500000 1.5634 7.0927 2.7269 0.0000 -10799.8168 1548.7713 0.0000 0.0000 1730.7380 -7508.9244 294.4378 -9239.6624 -7459.1472 300.4853 767.6603 802.3319 30445.9493 91.8479 164.9893
TCL: Running FEP window   9: Lambda1 0.39999999999999997 Lambda2 0.44999999999999996 [dLambda 0.04999999999999999]
TCL: Setting parameter firsttimestep to 0
TCL: Setting parameter alchLambda to 0.39999999999999997
Info: NONBONDED TABLE R-SQUARED SPACING: 0.0625
Info: NONBONDED TABLE SIZE: 705 POINTS
TCL: Setting parameter alchLambda2 to 0.44999999999999996
Info: NONBONDED TABLE R-SQUARED SPACING: 0.0625
Info: NONBONDED TABLE SIZE: 705 POINTS
TCL: Running for 1500000 steps
ETITLE: TS BOND ANGLE DIHED IMPRP ELECT VDW BOUNDARY MISC KINETIC TOTAL TEMP POTENTIAL TOTALAVG TEMPAVG PRESSURE GPRESSURE VOLUME PRESSAVG GPRESSAVG
ENERGY: 0 1.5634 7.0927 2.7269 0.0000 -10799.8168 1548.3739 0.0000 0.0000 1729.8318 -7510.2281 294.2836 -9240.0599 -7510.2281 294.2836 739.4116 803.2893 30445.9493 739.4116 803.2893
ENERGY: 300000 1.3615 6.2091 3.0536 0.0000 -10910.4227 1485.0399 0.0000 0.0000 1755.3601 -7659.3985 298.6266 -9414.7587 -7496.1159 301.1688 357.0947 426.8932 29436.4076 -19.7301 66.2362
ENERGY: 600000 0.2767 12.3670 2.8444 0.0000 -10594.8829 1354.6154 0.0000 0.0000 1789.6863 -7435.0931 304.4662 -9224.7794 -7473.0375 301.1415 -940.0210 -808.2794 30778.0568 -146.6512 -64.7738
ENERGY: 900000 4.3434 9.1254 3.9731 0.0000 -10614.3471 1449.8958 0.0000 0.0000 1677.4218 -7469.5876 285.3675 -9147.0095 -7474.2464 299.0102 356.1412 358.1235 30236.2019 -68.0785 -17.5841
ENERGY: 1200000 4.7406 5.2472 2.1644 0.0000 -10683.8592 1411.8269 0.0000 0.0000 1747.4077 -7512.4724 297.2737 -9259.8801 -7471.6060 298.2837 -519.7311 -450.1282 30541.4562 -112.8370 -53.0999
ENERGY: 1500000 1.4358 9.1947 3.7458 0.0000 -10521.1846 1343.1159 0.0000 0.0000 1761.7521 -7401.9403 299.7140 -9163.6924 -7468.8073 299.1135 -594.9282 -553.5656 31005.4182 -93.0664 -29.5008
TCL: Running FEP window  10: Lambda1 0.44999999999999996 Lambda2 0.49999999999999994 [dLambda 0.04999999999999999]
TCL: Setting parameter firsttimestep to 0
TCL: Setting parameter alchLambda to 0.44999999999999996
Info: NONBONDED TABLE R-SQUARED SPACING: 0.0625
Info: NONBONDED TABLE SIZE: 705 POINTS
TCL: Setting parameter alchLambda2 to 0.49999999999999994
Info: NONBONDED TABLE R-SQUARED SPACING: 0.0625
Info: NONBONDED TABLE SIZE: 705 POINTS
TCL: Running for 1500000 steps
ETITLE: TS BOND ANGLE DIHED IMPRP ELECT VDW BOUNDARY MISC KINETIC TOTAL TEMP POTENTIAL TOTALAVG TEMPAVG PRESSURE GPRESSURE VOLUME PRESSAVG GPRESSAVG
ENERGY: 0 1.4358 9.1947 3.7458 0.0000 -10521.1850 1343.9491 0.0000 0.0000 1760.8797 -7401.9800 299.5656 -9162.8597 -7401.9800 299.5656 -623.1759 -541.7786 31005.4182 -623.1759 -541.7786
ENERGY: 300000 0.9841 8.3033 2.6995 0.0000 -10890.0241 1563.4035 0.0000 0.0000 1771.7657 -7542.8679 301.4175 -9314.6336 -7489.1321 296.8761 1093.6095 1100.5682 29666.7165 46.4865 96.7409
ENERGY: 600000 2.7120 5.0824 2.4410 0.0000 -10640.2488 1360.0805 0.0000 0.0000 1762.5161 -7507.4168 299.8440 -9269.9329 -7494.6636 297.2236 -682.4108 -619.7296 30265.6508 -215.3650 -149.6709
ENERGY: 900000 1.2562 8.3275 3.8423 0.0000 -10757.0886 1467.9316 0.0000 0.0000 1747.2161 -7528.5148 297.2411 -9275.7310 -7489.9059 297.2238 -18.5764 83.4006 30382.0311 -87.5532 -23.5889
ENERGY: 1200000 1.3773 4.5597 4.3789 0.0000 -10773.8176 1466.5754 0.0000 0.0000 1747.5466 -7549.3797 297.2973 -9296.9263 -7492.5376 298.2299 78.7433 150.5000 30210.2931 -7.5985 50.3557
ENERGY: 1500000 1.0198 7.1197 2.3768 0.0000 -10720.2238 1449.1935 0.0000 0.0000 1727.8142 -7532.6997 293.9404 -9260.5139 -7497.2991 297.9471 -124.0379 -98.0206 30629.2509 22.9070 82.3548
TCL: Running FEP window  11: Lambda1 0.49999999999999994 Lambda2 0.5499999999999999 [dLambda 0.04999999999999999]
TCL: Setting parameter firsttimestep to 0
TCL: Setting parameter alchLambda to 0.49999999999999994
Info: NONBONDED TABLE R-SQUARED SPACING: 0.0625
Info: NONBONDED TABLE SIZE: 705 POINTS
TCL: Setting parameter alchLambda2 to 0.5499999999999999
Info: NONBONDED TABLE R-SQUARED SPACING: 0.0625
Info: NONBONDED TABLE SIZE: 705 POINTS
TCL: Running for 1500000 steps
ETITLE: TS BOND ANGLE DIHED IMPRP ELECT VDW BOUNDARY MISC KINETIC TOTAL TEMP POTENTIAL TOTALAVG TEMPAVG PRESSURE GPRESSURE VOLUME PRESSAVG GPRESSAVG
ENERGY: 0 1.0198 7.1197 2.3768 0.0000 -10720.2232 1449.1119 0.0000 0.0000 1726.9232 -7533.6717 293.7888 -9260.5949 -7533.6717 293.7888 -164.9060 -94.0744 30629.2509 -164.9060 -94.0744
ENERGY: 300000 1.6774 6.1805 2.8450 0.0000 -10665.1162 1426.7158 0.0000 0.0000 1799.3095 -7428.3881 306.1034 -9227.6976 -7476.9307 297.6038 -404.1416 -257.9080 30856.1168 -422.4931 -335.9895
ENERGY: 600000 0.9872 13.6453 2.5351 0.0000 -10742.6120 1454.3657 0.0000 0.0000 1788.6807 -7482.3980 304.2952 -9271.0788 -7471.5471 299.0014 17.8046 93.8953 30180.4116 -364.8690 -295.7827
ENERGY: 900000 1.0818 8.1378 2.8233 0.0000 -10738.9347 1464.4618 0.0000 0.0000 1818.4552 -7443.9748 309.3605 -9262.4301 -7471.1109 299.7594 93.8916 91.5297 30552.4591 -304.6604 -250.4799
ENERGY: 1200000 2.4778 6.0334 2.8883 0.0000 -10656.8616 1417.0553 0.0000 0.0000 1753.1414 -7475.2655 298.2491 -9228.4069 -7477.4610 299.7729 -162.7025 -128.7435 30451.1932 -291.5658 -240.2536
ENERGY: 1500000 1.6187 8.8527 3.2874 0.0000 -10846.7345 1544.8783 0.0000 0.0000 1722.1909 -7565.9065 292.9837 -9288.0974 -7485.3428 299.0991 717.8615 757.4057 30057.3693 -135.0044 -81.0145
TCL: Running FEP window  12: Lambda1 0.5499999999999999 Lambda2 0.6    [dLambda 0.050000000000000044]
TCL: Setting parameter firsttimestep to 0
TCL: Setting parameter alchLambda to 0.5499999999999999
Info: NONBONDED TABLE R-SQUARED SPACING: 0.0625
Info: NONBONDED TABLE SIZE: 705 POINTS
TCL: Setting parameter alchLambda2 to 0.6
Info: NONBONDED TABLE R-SQUARED SPACING: 0.0625
Info: NONBONDED TABLE SIZE: 705 POINTS
TCL: Running for 1500000 steps
ETITLE: TS BOND ANGLE DIHED IMPRP ELECT VDW BOUNDARY MISC KINETIC TOTAL TEMP POTENTIAL TOTALAVG TEMPAVG PRESSURE GPRESSURE VOLUME PRESSAVG GPRESSAVG
ENERGY: 0 1.6187 8.8527 3.2874 0.0000 -10846.3215 1544.7461 0.0000 0.0000 1721.2712 -7566.5453 292.8273 -9287.8166 -7566.5453 292.8273 668.9800 765.6776 30057.3693 668.9800 765.6776
ENERGY: 300000 1.6199 12.5583 4.4415 0.0000 -10666.0707 1492.3891 0.0000 0.0000 1773.3898 -7381.6721 301.6938 -9155.0619 -7493.3377 295.7063 841.7038 861.8864 30177.9806 479.9694 551.3551
ENERGY: 600000 0.3328 13.4386 2.9329 0.0000 -10800.5139 1523.1257 0.0000 0.0000 1735.6718 -7525.0122 295.2771 -9260.6839 -7493.8198 296.8968 666.8757 756.9881 30098.7340 181.3335 253.8952
ENERGY: 900000 0.7981 9.2914 4.4979 0.0000 -10692.8089 1439.7121 0.0000 0.0000 1731.5084 -7507.0010 294.5688 -9238.5094 -7487.3777 297.5185 -28.7210 2.2507 30342.3755 91.8079 153.9153
ENERGY: 1200000 1.3699 7.8314 3.0498 0.0000 -10634.0710 1347.1376 0.0000 0.0000 1742.5252 -7532.1572 296.4431 -9274.6823 -7486.3961 298.2706 -531.3775 -471.6889 30142.2454 64.4692 137.2413
ENERGY: 1500000 1.8860 5.6457 2.3328 0.0000 -10633.0308 1358.2788 0.0000 0.0000 1780.8538 -7484.0337 302.9636 -9264.8874 -7483.1833 297.9627 -431.0146 -375.6229 29941.7194 2.5562 73.3652
TCL: Running FEP window  13: Lambda1 0.6    Lambda2 0.65   [dLambda 0.050000000000000044]
TCL: Setting parameter firsttimestep to 0
TCL: Setting parameter alchLambda to 0.6
Info: NONBONDED TABLE R-SQUARED SPACING: 0.0625
Info: NONBONDED TABLE SIZE: 705 POINTS
TCL: Setting parameter alchLambda2 to 0.65
Info: NONBONDED TABLE R-SQUARED SPACING: 0.0625
Info: NONBONDED TABLE SIZE: 705 POINTS
TCL: Running for 1500000 steps
ETITLE: TS BOND ANGLE DIHED IMPRP ELECT VDW BOUNDARY MISC KINETIC TOTAL TEMP POTENTIAL TOTALAVG TEMPAVG PRESSURE GPRESSURE VOLUME PRESSAVG GPRESSAVG
ENERGY: 0 1.8860 5.6457 2.3328 0.0000 -10634.1459 1359.6682 0.0000 0.0000 1779.9838 -7484.6294 302.8156 -9264.6132 -7484.6294 302.8156 -442.1245 -354.0076 29941.7194 -442.1245 -354.0076
ENERGY: 300000 0.5737 9.3413 5.3074 0.0000 -10641.6910 1373.4196 0.0000 0.0000 1823.5521 -7429.4969 310.2276 -9253.0490 -7501.5041 299.4738 -502.9866 -424.7872 30484.4450 -74.9667 -6.5902
ENERGY: 600000 1.9324 9.4862 3.2064 0.0000 -10542.9761 1381.1303 0.0000 0.0000 1772.4269 -7374.7939 301.5300 -9147.2208 -7483.3952 300.6708 -369.3321 -265.7711 30536.2656 -241.9917 -171.0200
ENERGY: 900000 2.0841 9.7027 3.1143 0.0000 -10816.6602 1489.9715 0.0000 0.0000 1776.1904 -7535.5973 302.1703 -9311.7876 -7503.4936 299.2936 219.8834 267.9448 30031.5311 -150.8792 -77.6247
ENERGY: 1200000 1.0270 7.3463 3.2202 0.0000 -10687.4283 1449.1030 0.0000 0.0000 1760.6567 -7466.0750 299.5276 -9226.7318 -7503.3348 299.2373 193.6848 307.7716 30178.7429 -136.9480 -65.1185
ENERGY: 1500000 1.0853 10.9975 3.2262 0.0000 -10632.9376 1373.6649 0.0000 0.0000 1761.5680 -7482.3956 299.6827 -9243.9636 -7497.6678 299.0965 -485.5578 -471.8644 30516.3806 -141.1008 -70.7666
TCL: Running FEP window  14: Lambda1 0.65   Lambda2 0.7000000000000001 [dLambda 0.050000000000000044]
TCL: Setting parameter firsttimestep to 0
TCL: Setting parameter alchLambda to 0.65
Info: NONBONDED TABLE R-SQUARED SPACING: 0.0625
Info: NONBONDED TABLE SIZE: 705 POINTS
TCL: Setting parameter alchLambda2 to 0.7000000000000001
Info: NONBONDED TABLE R-SQUARED SPACING: 0.0625
Info: NONBONDED TABLE SIZE: 705 POINTS
TCL: Running for 1500000 steps
ETITLE: TS BOND ANGLE DIHED IMPRP ELECT VDW BOUNDARY MISC KINETIC TOTAL TEMP POTENTIAL TOTALAVG TEMPAVG PRESSURE GPRESSURE VOLUME PRESSAVG GPRESSAVG
ENERGY: 0 1.0853 10.9975 3.2262 0.0000 -10633.3398 1373.7624 0.0000 0.0000 1760.6882 -7483.5802 299.5330 -9244.2684 -7483.5802 299.5330 -552.5039 -465.8579 30516.3806 -552.5039 -465.8579
ENERGY: 300000 2.8182 8.7618 3.6556 0.0000 -10689.9952 1408.2628 0.0000 0.0000 1743.8125 -7522.6843 296.6621 -9266.4967 -7460.8921 301.2541 -452.4402 -319.2274 30400.7340 -217.4821 -124.0488
ENERGY: 600000 1.2915 4.6490 2.3478 0.0000 -10698.8805 1447.8816 0.0000 0.0000 1741.1848 -7501.5258 296.2150 -9242.7106 -7470.8686 299.6260 15.4934 55.7817 30495.1610 -271.7165 -205.0080
ENERGY: 900000 0.8046 12.1299 2.4332 0.0000 -10726.1976 1457.4644 0.0000 0.0000 1756.9124 -7496.4531 298.8906 -9253.3655 -7476.2245 298.7111 -71.5415 4.0662 30800.2913 -127.5858 -58.3396
ENERGY: 1200000 0.6002 7.6397 2.9955 0.0000 -10706.4312 1479.0182 0.0000 0.0000 1738.5734 -7477.6042 295.7708 -9216.1777 -7479.2370 298.3351 376.3343 349.2534 30668.0062 -45.2530 19.9979
ENERGY: 1500000 1.6424 8.8877 2.0257 0.0000 -10679.2692 1432.0445 0.0000 0.0000 1806.8405 -7427.8283 307.3845 -9234.6688 -7477.3212 299.2463 157.7750 190.0783 30199.8516 -36.1621 26.4670
TCL: Running FEP window  15: Lambda1 0.7000000000000001 Lambda2 0.7500000000000001 [dLambda 0.050000000000000044]
TCL: Setting parameter firsttimestep to 0
TCL: Setting parameter alchLambda to 0.7000000000000001
Info: NONBONDED TABLE R-SQUARED SPACING: 0.0625
Info: NONBONDED TABLE SIZE: 705 POINTS
TCL: Setting parameter alchLambda2 to 0.7500000000000001
Info: NONBONDED TABLE R-SQUARED SPACING: 0.0625
Info: NONBONDED TABLE SIZE: 705 POINTS
TCL: Running for 1500000 steps
ETITLE: TS BOND ANGLE DIHED IMPRP ELECT VDW BOUNDARY MISC KINETIC TOTAL TEMP POTENTIAL TOTALAVG TEMPAVG PRESSURE GPRESSURE VOLUME PRESSAVG GPRESSAVG
ENERGY: 0 1.6424 8.8877 2.0257 0.0000 -10680.2124 1432.7840 0.0000 0.0000 1806.0054 -7428.8672 307.2425 -9234.8726 -7428.8672 307.2425 136.7839 203.3555 30199.8516 136.7839 203.3555
ENERGY: 300000 5.1190 5.8872 3.3462 0.0000 -10674.3869 1469.7876 0.0000 0.0000 1729.0950 -7461.1519 294.1583 -9190.2469 -7425.4863 302.9389 301.3199 437.4809 30380.2611 141.6530 215.6709
ENERGY: 600000 4.6775 8.2820 3.1804 0.0000 -10804.9753 1488.1530 0.0000 0.0000 1756.7430 -7543.9394 298.8618 -9300.6824 -7448.1839 302.0173 178.9570 220.0438 30328.2783 48.8572 105.1426
ENERGY: 900000 0.8356 11.6076 3.9972 0.0000 -10617.5551 1429.3173 0.0000 0.0000 1739.8633 -7431.9341 295.9902 -9171.7974 -7457.2249 300.8460 20.1291 34.2990 30527.7677 116.9872 168.0017
ENERGY: 1200000 1.3565 8.7395 4.4125 0.0000 -10628.2947 1396.3270 0.0000 0.0000 1784.7522 -7432.7070 303.6268 -9217.4592 -7462.5218 300.5085 50.7039 93.6904 29878.2220 24.7179 79.0043
ENERGY: 1500000 2.0679 7.9207 1.4959 0.0000 -10729.8492 1417.1540 0.0000 0.0000 1727.6432 -7573.5675 293.9113 -9301.2107 -7472.9073 301.0566 -199.9905 -223.5484 30301.4028 4.2125 56.9188
TCL: Running FEP window  16: Lambda1 0.7500000000000001 Lambda2 0.8000000000000002 [dLambda 0.050000000000000044]
TCL: Setting parameter firsttimestep to 0
TCL: Setting parameter alchLambda to 0.7500000000000001
Info: NONBONDED TABLE R-SQUARED SPACING: 0.0625
Info: NONBONDED TABLE SIZE: 705 POINTS
TCL: Setting parameter alchLambda2 to 0.8000000000000002
Info: NONBONDED TABLE R-SQUARED SPACING: 0.0625
Info: NONBONDED TABLE SIZE: 705 POINTS
TCL: Running for 1500000 steps
ETITLE: TS BOND ANGLE DIHED IMPRP ELECT VDW BOUNDARY MISC KINETIC TOTAL TEMP POTENTIAL TOTALAVG TEMPAVG PRESSURE GPRESSURE VOLUME PRESSAVG GPRESSAVG
ENERGY: 0 2.0679 7.9207 1.4959 0.0000 -10730.9091 1417.8291 0.0000 0.0000 1726.7554 -7574.8401 293.7603 -9301.5955 -7574.8401 293.7603 -281.5947 -211.0849 30301.4028 -281.5947 -211.0849
ENERGY: 300000 2.1842 8.8757 3.7734 0.0000 -10832.6045 1508.0113 0.0000 0.0000 1743.5196 -7566.2403 296.6122 -9309.7599 -7508.1993 299.5327 395.3062 481.5187 30015.4141 -168.4801 -103.1158
ENERGY: 600000 0.2562 7.2301 3.6113 0.0000 -10753.0924 1427.9973 0.0000 0.0000 1760.5790 -7553.4186 299.5144 -9313.9976 -7505.2442 299.4468 -90.7128 -68.7472 30240.0439 7.2961 71.2241
ENERGY: 900000 0.8383 6.5285 3.5223 0.0000 -10588.9802 1331.6327 0.0000 0.0000 1856.3359 -7390.1224 315.8048 -9246.4583 -7480.0686 301.5248 -816.9956 -693.7554 30438.9219 -108.1976 -41.3366
ENERGY: 1200000 1.7552 7.9264 2.5459 0.0000 -10753.1687 1454.6832 0.0000 0.0000 1803.4385 -7482.8196 306.8058 -9286.2581 -7478.9753 302.6660 124.1423 191.2070 29928.0573 -55.0243 15.0352
ENERGY: 1500000 0.3254 9.8354 4.2151 0.0000 -10769.1614 1500.7368 0.0000 0.0000 1756.3941 -7497.6547 298.8025 -9254.0487 -7472.7684 302.9392 361.3571 476.7012 30480.0021 19.6227 91.4953
TCL: Running FEP window  17: Lambda1 0.8000000000000002 Lambda2 0.8500000000000002 [dLambda 0.050000000000000044]
TCL: Setting parameter firsttimestep to 0
TCL: Setting parameter alchLambda to 0.8000000000000002
Info: NONBONDED TABLE R-SQUARED SPACING: 0.0625
Info: NONBONDED TABLE SIZE: 705 POINTS
TCL: Setting parameter alchLambda2 to 0.8500000000000002
Info: NONBONDED TABLE R-SQUARED SPACING: 0.0625
Info: NONBONDED TABLE SIZE: 705 POINTS
TCL: Running for 1500000 steps
ETITLE: TS BOND ANGLE DIHED IMPRP ELECT VDW BOUNDARY MISC KINETIC TOTAL TEMP POTENTIAL TOTALAVG TEMPAVG PRESSURE GPRESSURE VOLUME PRESSAVG GPRESSAVG
ENERGY: 0 0.3254 9.8354 4.2151 0.0000 -10769.8909 1501.4655 0.0000 0.0000 1755.4882 -7498.5613 298.6484 -9254.0495 -7498.5613 298.6484 434.4480 495.6099 30480.0021 434.4480 495.6099
ENERGY: 300000 1.3618 14.1391 3.2761 0.0000 -10607.4640 1420.5992 0.0000 0.0000 1814.5783 -7353.5096 308.7009 -9168.0879 -7486.5520 303.7417 291.8702 385.5123 30198.2123 471.6743 535.3160
ENERGY: 600000 0.6136 11.5985 3.4308 0.0000 -10595.4587 1403.0675 0.0000 0.0000 1766.1741 -7410.5743 300.4663 -9176.7484 -7459.2132 302.5941 104.0917 93.5511 30367.5986 272.2147 323.4972
ENERGY: 900000 0.4870 8.3140 3.0172 0.0000 -10757.4217 1478.4388 0.0000 0.0000 1757.0138 -7510.1509 298.9079 -9267.1646 -7472.8849 301.9271 34.3181 101.2273 30628.8201 189.4658 254.4765
ENERGY: 1200000 1.9346 5.2999 3.1126 0.0000 -10713.6069 1432.3172 0.0000 0.0000 1781.9375 -7489.0051 303.1480 -9270.9426 -7475.3964 301.5027 -47.6242 -42.9999 30448.7426 72.1134 139.1824
ENERGY: 1500000 1.7583 9.3147 4.1481 0.0000 -10587.9194 1337.0768 0.0000 0.0000 1789.9172 -7445.7044 304.5055 -9235.6215 -7480.7122 300.7945 -1013.9308 -886.1004 30651.3127 17.6341 89.0585
TCL: Running FEP window  18: Lambda1 0.8500000000000002 Lambda2 0.9000000000000002 [dLambda 0.050000000000000044]
TCL: Setting parameter firsttimestep to 0
TCL: Setting parameter alchLambda to 0.8500000000000002
Info: NONBONDED TABLE R-SQUARED SPACING: 0.0625
Info: NONBONDED TABLE SIZE: 705 POINTS
TCL: Setting parameter alchLambda2 to 0.9000000000000002
Info: NONBONDED TABLE R-SQUARED SPACING: 0.0625
Info: NONBONDED TABLE SIZE: 705 POINTS
TCL: Running for 1500000 steps
ETITLE: TS BOND ANGLE DIHED IMPRP ELECT VDW BOUNDARY MISC KINETIC TOTAL TEMP POTENTIAL TOTALAVG TEMPAVG PRESSURE GPRESSURE VOLUME PRESSAVG GPRESSAVG
ENERGY: 0 1.7583 9.3147 4.1481 0.0000 -10588.4218 1337.3455 0.0000 0.0000 1789.0298 -7446.8255 304.3545 -9235.8553 -7446.8255 304.3545 -965.4658 -873.1273 30651.3127 -965.4658 -873.1273
ENERGY: 300000 1.6853 8.7818 3.5085 0.0000 -10761.5861 1487.1758 0.0000 0.0000 1788.6165 -7471.8181 304.2842 -9260.4346 -7456.6474 302.8878 293.9096 331.2908 30439.6741 -63.9823 12.0840
ENERGY: 600000 0.2766 6.5756 3.2673 0.0000 -10533.8738 1374.8324 0.0000 0.0000 1725.1179 -7423.8040 293.4817 -9148.9218 -7477.0590 300.5079 -157.8289 -96.7963 30421.6800 50.0687 116.1727
ENERGY: 900000 0.6840 4.1643 6.4156 0.0000 -10699.8180 1382.3292 0.0000 0.0000 1746.7418 -7559.4830 297.1604 -9306.2248 -7470.8489 299.6906 -791.0571 -624.6008 30491.3634 -0.4900 80.4977
ENERGY: 1200000 5.1954 6.8523 2.7687 0.0000 -10875.6484 1536.3550 0.0000 0.0000 1736.7831 -7587.6939 295.4662 -9324.4771 -7481.7569 299.0661 547.2826 640.0768 29996.3858 69.1833 146.5254
ENERGY: 1500000 0.8415 10.3470 2.3961 0.0000 -10709.9361 1438.6792 0.0000 0.0000 1776.5505 -7481.1217 302.2315 -9257.6723 -7481.3798 299.4822 -49.9031 12.7801 30437.9957 45.0003 119.1826
TCL: Running FEP window  19: Lambda1 0.9000000000000002 Lambda2 0.9500000000000003 [dLambda 0.050000000000000044]
TCL: Setting parameter firsttimestep to 0
TCL: Setting parameter alchLambda to 0.9000000000000002
Info: NONBONDED TABLE R-SQUARED SPACING: 0.0625
Info: NONBONDED TABLE SIZE: 705 POINTS
TCL: Setting parameter alchLambda2 to 0.9500000000000003
Info: NONBONDED TABLE R-SQUARED SPACING: 0.0625
Info: NONBONDED TABLE SIZE: 705 POINTS
TCL: Running for 1500000 steps
ETITLE: TS BOND ANGLE DIHED IMPRP ELECT VDW BOUNDARY MISC KINETIC TOTAL TEMP POTENTIAL TOTALAVG TEMPAVG PRESSURE GPRESSURE VOLUME PRESSAVG GPRESSAVG
ENERGY: 0 0.8415 10.3470 2.3961 0.0000 -10711.6373 1439.4806 0.0000 0.0000 1775.6695 -7482.9026 302.0817 -9258.5721 -7482.9026 302.0817 -56.2180 28.1253 30437.9957 -56.2180 28.1253
ENERGY: 300000 2.7486 9.9084 4.0555 0.0000 -10644.2530 1397.4319 0.0000 0.0000 1758.0197 -7472.0889 299.0790 -9230.1086 -7478.5115 299.6870 -229.5555 -148.1365 30166.2625 -8.0724 43.4977
ENERGY: 600000 1.6869 9.3175 3.8586 0.0000 -10565.8043 1390.2975 0.0000 0.0000 1778.3678 -7382.2761 302.5407 -9160.6439 -7462.0634 300.0096 -242.9987 -165.5021 30715.6375 -5.4944 56.0476
ENERGY: 900000 0.4544 9.9532 2.9910 0.0000 -10746.6141 1508.1938 0.0000 0.0000 1754.5366 -7470.4853 298.4865 -9225.0219 -7475.3260 298.7110 716.3260 746.6284 30098.4704 11.0932 80.0876
ENERGY: 1200000 2.1717 7.1597 5.0244 0.0000 -10657.1938 1429.6219 0.0000 0.0000 1768.5374 -7444.6786 300.8683 -9213.2160 -7473.8966 299.2577 -90.6195 35.6213 30660.6948 -30.1305 48.4905
ENERGY: 1500000 0.8553 5.7510 4.4104 0.0000 -10641.0246 1380.3325 0.0000 0.0000 1746.3945 -7503.2808 297.1013 -9249.6753 -7480.7273 299.1805 -416.2038 -325.8249 30391.0979 -86.1225 -7.0163
TCL: Running FEP window  20: Lambda1 0.9500000000000003 Lambda2 1.0    [dLambda 0.04999999999999971]
TCL: Setting parameter firsttimestep to 0
TCL: Setting parameter alchLambda to 0.9500000000000003
Info: NONBONDED TABLE R-SQUARED SPACING: 0.0625
Info: NONBONDED TABLE SIZE: 705 POINTS
TCL: Setting parameter alchLambda2 to 1.0
Info: NONBONDED TABLE R-SQUARED SPACING: 0.0625
Info: NONBONDED TABLE SIZE: 705 POINTS
TCL: Running for 1500000 steps
ETITLE: TS BOND ANGLE DIHED IMPRP ELECT VDW BOUNDARY MISC KINETIC TOTAL TEMP POTENTIAL TOTALAVG TEMPAVG PRESSURE GPRESSURE VOLUME PRESSAVG GPRESSAVG
ENERGY: 0 0.8553 5.7510 4.4104 0.0000 -10642.5015 1381.4818 0.0000 0.0000 1745.5247 -7504.4782 296.9533 -9250.0029 -7504.4782 296.9533 -377.0583 -298.9149 30391.0979 -377.0583 -298.9149
ENERGY: 300000 0.7966 7.2301 2.2531 0.0000 -10611.2562 1413.4461 0.0000 0.0000 1718.9623 -7468.5680 292.4345 -9187.5303 -7456.9138 301.4612 -140.8875 -56.1450 30562.5143 -378.4871 -285.9012
ENERGY: 600000 2.3926 6.4902 3.5292 0.0000 -10755.0004 1495.3327 0.0000 0.0000 1714.7720 -7532.4837 291.7216 -9247.2557 -7485.7883 299.8310 344.6705 412.0961 30413.0214 -356.7978 -271.8127
ENERGY: 900000 3.1122 9.2154 4.1582 0.0000 -10736.7730 1468.4773 0.0000 0.0000 1798.0533 -7453.7565 305.8897 -9251.8099 -7475.4708 300.6991 248.9864 281.4246 30464.8495 -225.3842 -147.0019
ENERGY: 1200000 2.6350 6.0591 1.9918 0.0000 -10632.7367 1370.1594 0.0000 0.0000 1778.6439 -7473.2475 302.5877 -9251.8914 -7478.1584 300.9370 -723.5738 -641.7253 30697.5219 -229.7248 -155.7607
ENERGY: 1500000 4.0802 8.0288 3.0641 0.0000 -10644.3990 1398.0253 0.0000 0.0000 1734.8262 -7496.3744 295.1333 -9231.2006 -7479.2783 299.6452 -376.7003 -296.8879 30289.7595 -248.9544 -173.3966
TCL: Exiting due to exit command.
