Info: SIMULATION PARAMETERS:
Info: TIMESTEP               2
Info: NUMBER OF STEPS        0
Info: STEPS PER CYCLE        10
Info: PERIODIC CELL BASIS 1  30.4339 0 0
Info: PERIODIC CELL BASIS 2  0 29.8423 0
Info: PERIODIC CELL BASIS 3  0 0 33.0923
Info: PERIODIC CELL CENTER   0 0 0
Info: WRAPPING WATERS AROUND PERIODIC BOUNDARIES ON OUTPUT.
Info: WRAPPING ALL CLUSTERS AROUND PERIODIC BOUNDARIES ON OUTPUT.
Info: FIRST LDB TIMESTEP     50
Info: LAST LDB TIMESTEP     -1
Info: HOM BACKGROUND SCALING 1
Info: PME BACKGROUND SCALING 1
Info: MIN ATOMS PER PATCH    40
Info: EMPTY PATCH LOAD       40 ATOMS
Info: VELOCITY FILE          mobley_2354112_equil.vel
Info: CENTER OF MASS MOVING INITIALLY? NO
Info: DIELECTRIC             1
Info: EXCLUDE                SCALED ONE-FOUR
Info: 1-4 ELECTROSTATICS SCALED BY 0.833333
Info: MODIFIED 1-4 VDW PARAMETERS WILL BE USED
Info: DCD FILENAME           mobley_2354112_prod.dcd
Info: DCD FREQUENCY          100000
Info: DCD FIRST STEP         100000
Info: DCD FILE WILL CONTAIN UNIT CELL DATA
Info: XST FILENAME           mobley_2354112_prod.xst
Info: XST FREQUENCY          100000
Info: NO VELOCITY DCD OUTPUT
Info: NO FORCE DCD OUTPUT
Info: OUTPUT FILENAME        mobley_2354112_prod
Info: BINARY OUTPUT FILES WILL BE USED
Info: RESTART FILENAME       mobley_2354112_prod.restart
Info: RESTART FREQUENCY      100000
Info: BINARY RESTART FILES WILL BE USED
Info: CUTOFF                 9
Info: PAIRLIST DISTANCE      11
Info: PAIRLIST SHRINK RATE   0.01
Info: PAIRLIST GROW RATE     0.01
Info: PAIRLIST TRIGGER       0.3
Info: PAIRLISTS PER CYCLE    2
Info: PAIRLISTS ENABLED
Info: MARGIN                 2
Info: HYDROGEN GROUP CUTOFF  2.5
Info: PATCH DIMENSION        15.5
Info: ENERGY OUTPUT STEPS    100000
Info: ENERGY EVALUATION STEPS    100000
Info: OUTPUT ENERGY PRECISION 4
Info: CROSSTERM ENERGY INCLUDED IN DIHEDRAL
Info: TIMING OUTPUT STEPS    1000000
Info: PRESSURE OUTPUT STEPS  100000
Info: ALCHEMICAL FEP ON
Info: FEP CURRENT LAMBDA VALUE     0
Info: FEP COMPARISON LAMBDA VALUE  0.05
Info: FEP INTRA-ALCHEMICAL NON-BONDED INTERACTIONS WILL BE RETAINED
Info: FEP INTRA-ALCHEMICAL BONDED INTERACTIONS WILL BE RETAINED
Info: FEP VDW SHIFTING COEFFICIENT 5
Info: FEP ELEC. ACTIVE FOR ANNIHILATED PARTICLES BETWEEN LAMBDA = 0 AND LAMBDA = 0.5
Info: FEP ELEC. ACTIVE FOR EXNIHILATED PARTICLES BETWEEN LAMBDA = 0.5 AND LAMBDA = 1
Info: FEP VDW ACTIVE FOR ANNIHILATED PARTICLES BETWEEN LAMBDA = 0 AND LAMBDA = 1
Info: FEP VDW ACTIVE FOR EXNIHILATED PARTICLES BETWEEN LAMBDA = 0 AND LAMBDA = 1
Info: FEP BOND ACTIVE FOR ANNIHILATED PARTICLES BETWEEN LAMBDA = 1 AND LAMBDA = 1
Info: FEP BOND ACTIVE FOR EXNIHILATED PARTICLES BETWEEN LAMBDA = 0 AND LAMBDA = 0
Info: LANGEVIN DYNAMICS ACTIVE
Info: LANGEVIN TEMPERATURE   300
Info: LANGEVIN USING BBK INTEGRATOR
Info: LANGEVIN DAMPING COEFFICIENT IS 1 INVERSE PS
Info: LANGEVIN DYNAMICS APPLIED TO HYDROGENS
Info: LANGEVIN PISTON PRESSURE CONTROL ACTIVE
Info:        TARGET PRESSURE IS 1.01325 BAR
Info:     OSCILLATION PERIOD IS 50 FS
Info:             DECAY TIME IS 25 FS
Info:     PISTON TEMPERATURE IS 300 K
Info:       PRESSURE CONTROL IS GROUP-BASED
Info:    INITIAL STRAIN RATE IS -0.000239696 -0.000239696 -0.000239696
Info:       CELL FLUCTUATION IS ISOTROPIC
Info: PARTICLE MESH EWALD (PME) ACTIVE
Info: PME TOLERANCE               1e-06
Info: PME EWALD COEFFICIENT       0.348832
Info: PME INTERPOLATION ORDER     4
Info: PME GRID DIMENSIONS         32 32 36
Info: PME MAXIMUM GRID SPACING    1
Info: PME CALCULATION WILL BE PERFORMED ON GPU
Info: FULL ELECTROSTATIC EVALUATION FREQUENCY      2
Info: USING VERLET I (r-RESPA) MTS SCHEME.
Info: C1 SPLITTING OF LONG RANGE ELECTROSTATICS
Info: PLACING ATOMS IN PATCHES BY HYDROGEN GROUPS
Info: RIGID BONDS TO HYDROGEN : ALL
Info:         ERROR TOLERANCE : 1e-08
Info:          MAX ITERATIONS : 100
Info: RIGID WATER USING SETTLE ALGORITHM
Info: RANDOM NUMBER SEED     1743778759
Info: USE HYDROGEN BONDS?    NO
Info: Using AMBER format force field!
Info: AMBER PARM FILE        mobley_2354112.prmtop
Info: COORDINATE PDB         mobley_2354112.pdb
Info: Exclusions will be read from PARM file!
Info: SCNB (VDW SCALING)     2
Info: USING ARITHMETIC MEAN TO COMBINE L-J SIGMA PARAMETERS
Info: BINARY COORDINATES     mobley_2354112_equil.coor
Info: SUMMARY OF PARAMETERS:
Info: 9 BONDS
Info: 9 ANGLES
Info:   9 HARMONIC
Info:   0 COSINE-BASED
Info: 6 DIHEDRAL
Info: 0 IMPROPER
Info: 0 CROSSTERM
Info: 0 VDW
Info: 28 VDW_PAIRS
Info: 0 NBTHOLE_PAIRS
Info: To read alchdata from file: mobley_2354112.pdb
Info: To read alchflag data from column: 5
Info: STRUCTURE SUMMARY:
Info: 2911 ATOMS
Info: 2911 BONDS
Info: 31 ANGLES
Info: 47 DIHEDRALS
Info: 0 IMPROPERS
Info: 0 CROSSTERMS
Info: 2980 EXCLUSIONS
Info: 2902 RIGID BONDS
Info: ALCH: 0 ATOMS TO DISAPPEAR IN FINAL STATE
Info: ALCH: 19 ATOMS TO APPEAR IN FINAL STATE
Info: 5831 DEGREES OF FREEDOM
Info: 973 HYDROGEN GROUPS
Info: 4 ATOMS IN LARGEST HYDROGEN GROUP
Info: 973 MIGRATION GROUPS
Info: 4 ATOMS IN LARGEST MIGRATION GROUP
Info: TOTAL MASS = 17489.6 amu
Info: TOTAL CHARGE = -9.99719e-05 e
Info: MASS DENSITY = 0.966322 g/cm^3
Info: ATOM DENSITY = 0.0968558 atoms/A^3
Info: ADDED 0 IMPLICIT EXCLUSIONS
Info: NONBONDED TABLE R-SQUARED SPACING: 0.0625
Info: NONBONDED TABLE SIZE: 705 POINTS
Info: REMOVING COM VELOCITY -0.160593 0.177554 0.168772
Info: Use 3D box decompostion in PME FFT.
Info: Updated CUDA force table with 4096 elements.
Info: Updated CUDA LJ table with 7 x 7 elements.
Info: Found 20 unique exclusion lists needing 56 bytes
TCL: Running for 1500000 steps
ETITLE: TS BOND ANGLE DIHED IMPRP ELECT VDW BOUNDARY MISC KINETIC TOTAL TEMP POTENTIAL TOTALAVG TEMPAVG PRESSURE GPRESSURE VOLUME PRESSAVG GPRESSAVG
ENERGY: 0 3.3772 8.3839 4.6461 0.0000 -10601.3950 1465.8919 0.0000 0.0000 1746.0992 -7372.9968 301.3813 -9119.0960 -7372.9968 301.3813 234.5640 328.1659 30055.0008 234.5640 328.1659
ENERGY: 300000 3.3168 5.0019 2.4953 0.0000 -10511.7119 1382.0725 0.0000 0.0000 1777.8000 -7341.0253 306.8529 -9118.8253 -7344.6847 306.0439 -381.6269 -323.4239 29472.8000 138.4888 213.4671
ENERGY: 600000 2.7968 3.8123 1.7158 0.0000 -10540.8844 1423.5177 0.0000 0.0000 1801.8339 -7307.2078 311.0012 -9109.0418 -7358.1202 303.3013 -80.3734 -23.1968 30022.0806 62.8213 137.8241
ENERGY: 900000 1.5114 5.0564 6.3392 0.0000 -10672.5352 1484.1509 0.0000 0.0000 1751.9426 -7423.5347 302.3898 -9175.4773 -7384.3462 301.7946 469.1373 557.7422 29340.1556 -11.4981 65.3600
ENERGY: 1200000 3.2135 7.1257 1.8707 0.0000 -10571.8810 1433.4764 0.0000 0.0000 1694.0612 -7432.1334 292.3994 -9126.1947 -7390.8298 300.3314 -16.8509 42.5966 29756.7638 26.3787 101.1646
ENERGY: 1500000 0.7755 7.6034 5.7186 0.0000 -10635.2052 1461.8003 0.0000 0.0000 1737.2788 -7422.0285 299.8589 -9159.3074 -7390.1189 299.6747 337.7503 357.5011 29670.6737 111.9189 175.1396
TCL: Running FEP window   2: Lambda1 0.05   Lambda2 0.1    [dLambda 0.05  ]
TCL: Setting parameter firsttimestep to 0
TCL: Setting parameter alchLambda to 0.05
Info: NONBONDED TABLE R-SQUARED SPACING: 0.0625
Info: NONBONDED TABLE SIZE: 705 POINTS
TCL: Setting parameter alchLambda2 to 0.1
Info: NONBONDED TABLE R-SQUARED SPACING: 0.0625
Info: NONBONDED TABLE SIZE: 705 POINTS
TCL: Running for 1500000 steps
ETITLE: TS BOND ANGLE DIHED IMPRP ELECT VDW BOUNDARY MISC KINETIC TOTAL TEMP POTENTIAL TOTALAVG TEMPAVG PRESSURE GPRESSURE VOLUME PRESSAVG GPRESSAVG
ENERGY: 0 0.7755 7.6034 5.7186 0.0000 -10635.2055 1464.3513 0.0000 0.0000 1736.4153 -7420.3414 299.7098 -9156.7567 -7420.3414 299.7098 295.3552 365.8241 29670.6737 295.3552 365.8241
ENERGY: 300000 5.0229 5.6147 1.0542 0.0000 -10594.3086 1449.9814 0.0000 0.0000 1750.2794 -7382.3559 302.1028 -9132.6353 -7409.8387 301.6255 93.1477 175.1322 29635.1773 -36.2710 28.2474
ENERGY: 600000 0.9948 5.5705 6.0045 0.0000 -10476.3831 1357.4906 0.0000 0.0000 1710.9911 -7395.3316 295.3215 -9106.3226 -7408.3969 301.5339 -440.2228 -388.3848 29710.2598 -66.2637 5.3381
ENERGY: 900000 1.2298 4.8293 3.9634 0.0000 -10481.9044 1374.0054 0.0000 0.0000 1735.4235 -7362.4531 299.5386 -9097.8766 -7413.2746 300.0014 -121.0253 -126.8757 29639.4413 -123.2834 -66.6704
ENERGY: 1200000 1.9135 6.3615 1.8697 0.0000 -10605.3524 1483.2053 0.0000 0.0000 1697.2226 -7414.7799 292.9450 -9112.0025 -7415.4872 300.1613 533.4107 586.4404 29700.8531 -74.1431 -10.9803
ENERGY: 1500000 1.9651 4.4574 3.6655 0.0000 -10400.4292 1324.9011 0.0000 0.0000 1725.9779 -7339.4621 297.9083 -9065.4400 -7400.3021 300.4225 -1020.3872 -929.2245 30269.0732 -134.5341 -66.7543
TCL: Running FEP window   3: Lambda1 0.1    Lambda2 0.15000000000000002 [dLambda 0.05000000000000002]
TCL: Setting parameter firsttimestep to 0
TCL: Setting parameter alchLambda to 0.1
Info: NONBONDED TABLE R-SQUARED SPACING: 0.0625
Info: NONBONDED TABLE SIZE: 705 POINTS
TCL: Setting parameter alchLambda2 to 0.15000000000000002
Info: NONBONDED TABLE R-SQUARED SPACING: 0.0625
Info: NONBONDED TABLE SIZE: 705 POINTS
TCL: Running for 1500000 steps
ETITLE: TS BOND ANGLE DIHED IMPRP ELECT VDW BOUNDARY MISC KINETIC TOTAL TEMP POTENTIAL TOTALAVG TEMPAVG PRESSURE GPRESSURE VOLUME PRESSAVG GPRESSAVG
ENERGY: 0 1.9651 4.4574 3.6655 0.0000 -10400.4286 1326.4784 0.0000 0.0000 1725.1008 -7338.7613 297.7569 -9063.8621 -7338.7613 297.7569 -989.5614 -918.2837 30269.0732 -989.5614 -918.2837
ENERGY: 300000 5.8392 9.0862 2.4375 0.0000 -10544.5140 1447.7668 0.0000 0.0000 1772.0913 -7307.2930 305.8676 -9079.3843 -7368.5993 302.0291 -90.0022 -16.9399 29970.1293 -392.8740 -352.3232
ENERGY: 600000 1.7570 6.9283 3.9407 0.0000 -10559.1009 1431.1811 0.0000 0.0000 1754.9700 -7360.3238 302.9124 -9115.2938 -7372.3001 302.9018 -3.3366 28.3658 29876.7522 -128.8472 -75.9134
ENERGY: 900000 2.1176 6.9791 4.9812 0.0000 -10646.6924 1464.6794 0.0000 0.0000 1764.7463 -7403.1889 304.5998 -9167.9351 -7383.7840 301.9407 -45.4665 64.6383 30028.7957 14.7372 71.8824
ENERGY: 1200000 3.7220 4.8278 2.7596 0.0000 -10376.0602 1306.1818 0.0000 0.0000 1719.6858 -7338.8832 296.8223 -9058.5690 -7378.8948 301.3271 -795.3961 -775.3216 30035.9485 -67.4791 -9.5819
ENERGY: 1500000 1.7665 7.4598 2.2808 0.0000 -10642.6759 1489.1506 0.0000 0.0000 1764.9455 -7377.0727 304.6342 -9142.0182 -7374.9771 301.4858 356.6999 433.4716 29710.3858 -94.4494 -33.4736
TCL: Running FEP window   4: Lambda1 0.15000000000000002 Lambda2 0.2    [dLambda 0.04999999999999999]
TCL: Setting parameter firsttimestep to 0
TCL: Setting parameter alchLambda to 0.15000000000000002
Info: NONBONDED TABLE R-SQUARED SPACING: 0.0625
Info: NONBONDED TABLE SIZE: 705 POINTS
TCL: Setting parameter alchLambda2 to 0.2
Info: NONBONDED TABLE R-SQUARED SPACING: 0.0625
Info: NONBONDED TABLE SIZE: 705 POINTS
TCL: Running for 1500000 steps
ETITLE: TS BOND ANGLE DIHED IMPRP ELECT VDW BOUNDARY MISC KINETIC TOTAL TEMP POTENTIAL TOTALAVG TEMPAVG PRESSURE GPRESSURE VOLUME PRESSAVG GPRESSAVG
ENERGY: 0 1.7665 7.4598 2.2808 0.0000 -10642.6750 1491.9859 0.0000 0.0000 1764.0760 -7375.1061 304.4841 -9139.1821 -7375.1061 304.4841 359.7871 444.7952 29710.3858 359.7871 444.7952
ENERGY: 300000 3.4226 11.4490 2.6407 0.0000 -10438.9442 1421.7873 0.0000 0.0000 1710.7754 -7288.8691 295.2843 -8999.6445 -7365.9819 301.4315 -27.7186 -8.5721 30349.0657 -11.2447 34.8563
ENERGY: 600000 2.7686 5.0836 3.5500 0.0000 -10658.3985 1468.1330 0.0000 0.0000 1764.6545 -7414.2088 304.5840 -9178.8633 -7393.4519 298.9924 502.5483 506.5173 29134.4585 20.4255 59.4941
ENERGY: 900000 4.0241 5.2195 3.3343 0.0000 -10634.3014 1496.0646 0.0000 0.0000 1783.0807 -7342.5782 307.7644 -9125.6589 -7387.3727 300.1404 727.7276 754.5603 29422.4144 14.5422 52.8194
ENERGY: 1200000 1.9015 6.8951 3.9116 0.0000 -10518.3613 1419.9080 0.0000 0.0000 1729.0670 -7356.6781 298.4415 -9085.7451 -7386.2770 300.1659 67.1360 128.8608 29646.6641 -23.3328 21.3290
ENERGY: 1500000 1.4721 7.2767 7.1327 0.0000 -10612.6523 1421.8458 0.0000 0.0000 1785.2421 -7389.6830 308.1374 -9174.9251 -7389.9410 300.6732 -157.2505 -87.9642 29716.7335 -73.4873 -23.6785
TCL: Running FEP window   5: Lambda1 0.2    Lambda2 0.25   [dLambda 0.04999999999999999]
TCL: Setting parameter firsttimestep to 0
TCL: Setting parameter alchLambda to 0.2
Info: NONBONDED TABLE R-SQUARED SPACING: 0.0625
Info: NONBONDED TABLE SIZE: 705 POINTS
TCL: Setting parameter alchLambda2 to 0.25
Info: NONBONDED TABLE R-SQUARED SPACING: 0.0625
Info: NONBONDED TABLE SIZE: 705 POINTS
TCL: Running for 1500000 steps
ETITLE: TS BOND ANGLE DIHED IMPRP ELECT VDW BOUNDARY MISC KINETIC TOTAL TEMP POTENTIAL TOTALAVG TEMPAVG PRESSURE GPRESSURE VOLUME PRESSAVG GPRESSAVG
ENERGY: 0 1.4721 7.2767 7.1327 0.0000 -10612.6518 1422.9222 0.0000 0.0000 1784.3819 -7389.4662 307.9890 -9173.8481 -7389.4662 307.9890 -173.5932 -77.5788 29716.7335 -173.5932 -77.5788
ENERGY: 300000 0.9850 5.6033 3.8704 0.0000 -10707.2303 1505.8289 0.0000 0.0000 1801.2522 -7389.6906 310.9008 -9190.9428 -7370.5217 307.7278 810.9252 869.3304 29103.0520 36.0192 121.7395
ENERGY: 600000 2.6985 7.5644 4.2390 0.0000 -10381.9201 1339.7376 0.0000 0.0000 1723.4623 -7304.2183 297.4741 -9027.6806 -7353.9062 303.7728 -629.7997 -617.6975 29896.8016 -138.7186 -62.1587
ENERGY: 900000 2.0349 6.4670 3.3446 0.0000 -10615.5244 1421.8610 0.0000 0.0000 1733.9184 -7447.8985 299.2788 -9181.8169 -7372.3010 301.8948 -350.0744 -306.2465 30114.6594 -221.2446 -144.1592
ENERGY: 1200000 3.9681 3.9283 1.1064 0.0000 -10528.5884 1414.3116 0.0000 0.0000 1768.4414 -7336.8325 305.2376 -9105.2739 -7369.4852 301.7755 -38.2065 30.3780 29869.0680 -210.1584 -134.6113
ENERGY: 1500000 4.0865 9.1010 4.7326 0.0000 -10488.3787 1371.2339 0.0000 0.0000 1772.6664 -7326.5584 305.9668 -9099.2247 -7370.9878 301.4105 -407.4446 -324.6426 30048.3781 -141.8951 -69.6395
TCL: Running FEP window   6: Lambda1 0.25   Lambda2 0.3    [dLambda 0.04999999999999999]
TCL: Setting parameter firsttimestep to 0
TCL: Setting parameter alchLambda to 0.25
Info: NONBONDED TABLE R-SQUARED SPACING: 0.0625
Info: NONBONDED TABLE SIZE: 705 POINTS
TCL: Setting parameter alchLambda2 to 0.3
Info: NONBONDED TABLE R-SQUARED SPACING: 0.0625
Info: NONBONDED TABLE SIZE: 705 POINTS
TCL: Running for 1500000 steps
ETITLE: TS BOND ANGLE DIHED IMPRP ELECT VDW BOUNDARY MISC KINETIC TOTAL TEMP POTENTIAL TOTALAVG TEMPAVG PRESSURE GPRESSURE VOLUME PRESSAVG GPRESSAVG
ENERGY: 0 4.0865 9.1010 4.7326 0.0000 -10488.3782 1371.6012 0.0000 0.0000 1771.8375 -7327.0194 305.8238 -9098.8569 -7327.0194 305.8238 -401.0507 -321.4293 30048.3781 -401.0507 -321.4293
ENERGY: 300000 3.1682 9.6663 5.2322 0.0000 -10603.0965 1427.3906 0.0000 0.0000 1811.5183 -7346.1209 312.6728 -9157.6392 -7357.4628 304.4585 -147.2840 -127.4605 30244.7698 -432.7179 -383.6881
ENERGY: 600000 1.1816 4.0691 4.3232 0.0000 -10660.0958 1474.2739 0.0000 0.0000 1763.0298 -7413.2182 304.3035 -9176.2480 -7383.0733 300.9290 380.7117 463.1606 29549.8079 -107.3212 -52.7101
ENERGY: 900000 4.0781 7.3280 3.7147 0.0000 -10408.8460 1358.2044 0.0000 0.0000 1694.0723 -7341.4485 292.4013 -9035.5208 -7379.8875 300.0021 -336.2815 -358.7879 30249.3337 -178.7489 -126.8454
ENERGY: 1200000 1.2921 8.4410 5.1102 0.0000 -10513.3620 1476.1315 0.0000 0.0000 1722.0348 -7300.3523 297.2277 -9022.3872 -7365.5751 300.8331 584.5894 620.5088 30026.2858 -139.6645 -89.3491
ENERGY: 1500000 4.1553 10.7854 3.9115 0.0000 -10480.7895 1439.8595 0.0000 0.0000 1749.4998 -7272.5780 301.9682 -9022.0778 -7357.0267 300.6267 230.9399 304.4173 29984.1288 -154.0277 -97.5757
TCL: Running FEP window   7: Lambda1 0.3    Lambda2 0.35   [dLambda 0.04999999999999999]
TCL: Setting parameter firsttimestep to 0
TCL: Setting parameter alchLambda to 0.3
Info: NONBONDED TABLE R-SQUARED SPACING: 0.0625
Info: NONBONDED TABLE SIZE: 705 POINTS
TCL: Setting parameter alchLambda2 to 0.35
Info: NONBONDED TABLE R-SQUARED SPACING: 0.0625
Info: NONBONDED TABLE SIZE: 705 POINTS
TCL: Running for 1500000 steps
ETITLE: TS BOND ANGLE DIHED IMPRP ELECT VDW BOUNDARY MISC KINETIC TOTAL TEMP POTENTIAL TOTALAVG TEMPAVG PRESSURE GPRESSURE VOLUME PRESSAVG GPRESSAVG
ENERGY: 0 4.1553 10.7854 3.9115 0.0000 -10480.7897 1439.5582 0.0000 0.0000 1748.5775 -7273.8018 301.8090 -9022.3793 -7273.8018 301.8090 223.1027 309.2777 29984.1288 223.1027 309.2777
ENERGY: 300000 1.5592 7.6438 3.6269 0.0000 -10554.1953 1355.7696 0.0000 0.0000 1749.8795 -7435.7162 302.0338 -9185.5958 -7365.0024 301.0487 -805.9455 -761.1325 29723.2827 -41.9811 31.4015
ENERGY: 600000 5.4838 4.7783 1.8382 0.0000 -10560.7256 1427.7470 0.0000 0.0000 1774.2076 -7346.6708 306.2328 -9120.8784 -7373.2080 301.7315 -122.6751 -87.5948 30044.6963 -9.0060 53.7830
ENERGY: 900000 3.2309 5.5584 3.8697 0.0000 -10464.1248 1354.2078 0.0000 0.0000 1727.5958 -7369.6622 298.1875 -9097.2579 -7376.0772 300.6787 -847.3150 -786.5820 30247.6748 41.2539 103.2846
ENERGY: 1200000 1.4177 2.5433 1.5659 0.0000 -10577.2472 1427.9812 0.0000 0.0000 1729.6776 -7414.0616 298.5469 -9143.7392 -7383.5774 299.8420 78.7689 176.3821 29634.7237 89.2465 149.4552
ENERGY: 1500000 0.7219 9.0412 4.1946 0.0000 -10573.3305 1467.9884 0.0000 0.0000 1776.5717 -7314.8127 306.6409 -9091.3844 -7382.4173 299.7061 628.2192 648.2842 29532.4684 105.3608 165.5192
TCL: Running FEP window   8: Lambda1 0.35   Lambda2 0.39999999999999997 [dLambda 0.04999999999999999]
TCL: Setting parameter firsttimestep to 0
TCL: Setting parameter alchLambda to 0.35
Info: NONBONDED TABLE R-SQUARED SPACING: 0.0625
Info: NONBONDED TABLE SIZE: 705 POINTS
TCL: Setting parameter alchLambda2 to 0.39999999999999997
Info: NONBONDED TABLE R-SQUARED SPACING: 0.0625
Info: NONBONDED TABLE SIZE: 705 POINTS
TCL: Running for 1500000 steps
ETITLE: TS BOND ANGLE DIHED IMPRP ELECT VDW BOUNDARY MISC KINETIC TOTAL TEMP POTENTIAL TOTALAVG TEMPAVG PRESSURE GPRESSURE VOLUME PRESSAVG GPRESSAVG
ENERGY: 0 0.7219 9.0412 4.1946 0.0000 -10573.3288 1468.3858 0.0000 0.0000 1775.7338 -7315.2514 306.4963 -9090.9853 -7315.2514 306.4963 580.3549 660.5470 29532.4684 580.3549 660.5470
ENERGY: 300000 5.9225 6.0634 5.0877 0.0000 -10513.5869 1374.9730 0.0000 0.0000 1761.7589 -7359.7814 304.0842 -9121.5404 -7372.5959 300.0350 -390.3314 -383.0528 29966.2294 147.2505 223.6118
ENERGY: 600000 2.7978 6.9433 2.6563 0.0000 -10515.1725 1435.5873 0.0000 0.0000 1736.8448 -7330.3430 299.7839 -9067.1877 -7368.1153 299.0563 -5.0840 91.4086 30268.2355 52.7575 122.8043
ENERGY: 900000 3.5845 7.1369 2.3784 0.0000 -10545.7289 1404.9643 0.0000 0.0000 1717.4915 -7410.1733 296.4435 -9127.6647 -7374.9209 298.1280 -114.5158 -87.9347 29923.8664 -66.3377 4.4148
ENERGY: 1200000 5.0203 7.3816 2.9944 0.0000 -10661.3744 1499.6668 0.0000 0.0000 1713.9027 -7432.4087 295.8241 -9146.3113 -7380.7610 298.5838 610.1940 732.5951 29638.0951 -52.0868 13.8746
ENERGY: 1500000 3.2700 6.9463 3.3980 0.0000 -10517.4415 1365.0087 0.0000 0.0000 1742.8066 -7396.0118 300.8130 -9138.8184 -7375.8861 299.0428 -718.4106 -664.1159 30309.5698 -77.1847 -8.9426
TCL: Running FEP window   9: Lambda1 0.39999999999999997 Lambda2 0.44999999999999996 [dLambda 0.04999999999999999]
TCL: Setting parameter firsttimestep to 0
TCL: Setting parameter alchLambda to 0.39999999999999997
Info: NONBONDED TABLE R-SQUARED SPACING: 0.0625
Info: NONBONDED TABLE SIZE: 705 POINTS
TCL: Setting parameter alchLambda2 to 0.44999999999999996
Info: NONBONDED TABLE R-SQUARED SPACING: 0.0625
Info: NONBONDED TABLE SIZE: 705 POINTS
TCL: Running for 1500000 steps
ETITLE: TS BOND ANGLE DIHED IMPRP ELECT VDW BOUNDARY MISC KINETIC TOTAL TEMP POTENTIAL TOTALAVG TEMPAVG PRESSURE GPRESSURE VOLUME PRESSAVG GPRESSAVG
ENERGY: 0 3.2700 6.9463 3.3980 0.0000 -10517.4418 1364.8477 0.0000 0.0000 1741.9416 -7397.0382 300.6637 -9138.9798 -7397.0382 300.6637 -745.0756 -660.1493 30309.5698 -745.0756 -660.1493
ENERGY: 300000 4.5491 9.7514 1.9694 0.0000 -10475.5524 1339.8715 0.0000 0.0000 1727.0357 -7392.3752 298.0909 -9119.4110 -7360.7560 301.0151 -750.9384 -721.2510 29969.9052 -161.1295 -79.4165
ENERGY: 600000 1.6564 5.7124 3.4323 0.0000 -10369.6202 1333.3479 0.0000 0.0000 1714.3565 -7311.1146 295.9024 -9025.4711 -7341.9786 300.2230 -628.0902 -501.1301 30054.2093 -217.7627 -125.8772
ENERGY: 900000 3.6929 4.8102 5.2488 0.0000 -10509.1899 1382.9056 0.0000 0.0000 1725.4983 -7387.0342 297.8255 -9112.5325 -7345.7081 299.9893 -333.0267 -207.6733 29873.1106 -217.0607 -130.1870
ENERGY: 1200000 2.2817 3.0144 4.0068 0.0000 -10638.0205 1478.7869 0.0000 0.0000 1724.0489 -7425.8819 297.5753 -9149.9308 -7340.7155 302.1657 432.9673 486.8808 29624.1506 -180.2353 -97.6625
ENERGY: 1500000 1.8362 2.6531 3.6233 0.0000 -10787.5235 1535.6234 0.0000 0.0000 1723.1951 -7520.5924 297.4280 -9243.7875 -7351.3727 301.9185 864.3275 895.9141 29245.0961 -111.6497 -34.4302
TCL: Running FEP window  10: Lambda1 0.44999999999999996 Lambda2 0.49999999999999994 [dLambda 0.04999999999999999]
TCL: Setting parameter firsttimestep to 0
TCL: Setting parameter alchLambda to 0.44999999999999996
Info: NONBONDED TABLE R-SQUARED SPACING: 0.0625
Info: NONBONDED TABLE SIZE: 705 POINTS
TCL: Setting parameter alchLambda2 to 0.49999999999999994
Info: NONBONDED TABLE R-SQUARED SPACING: 0.0625
Info: NONBONDED TABLE SIZE: 705 POINTS
TCL: Running for 1500000 steps
ETITLE: TS BOND ANGLE DIHED IMPRP ELECT VDW BOUNDARY MISC KINETIC TOTAL TEMP POTENTIAL TOTALAVG TEMPAVG PRESSURE GPRESSURE VOLUME PRESSAVG GPRESSAVG
ENERGY: 0 1.8362 2.6531 3.6233 0.0000 -10787.5235 1535.5689 0.0000 0.0000 1722.3565 -7521.4856 297.2832 -9243.8420 -7521.4856 297.2832 833.7595 903.7170 29245.0961 833.7595 903.7170
ENERGY: 300000 1.6047 7.4256 4.8334 0.0000 -10466.7868 1401.7777 0.0000 0.0000 1771.2949 -7279.8505 305.7301 -9051.1453 -7406.6238 297.4401 -65.2331 62.2145 30253.6472 80.9039 154.0996
ENERGY: 600000 4.9199 5.3552 5.1792 0.0000 -10589.9620 1450.7229 0.0000 0.0000 1729.7100 -7394.0749 298.5525 -9123.7849 -7393.1418 298.0998 378.3507 409.7230 29644.6857 104.8778 167.7800
ENERGY: 900000 3.4372 4.8255 1.5022 0.0000 -10514.8168 1373.1867 0.0000 0.0000 1692.6311 -7439.2341 292.1525 -9131.8653 -7387.1546 297.8167 -210.9520 -128.9044 29757.1627 107.8058 175.5574
ENERGY: 1200000 0.9103 7.0878 7.9979 0.0000 -10689.8312 1548.2144 0.0000 0.0000 1751.0449 -7374.5759 302.2349 -9125.6208 -7374.6497 298.9040 986.4428 1024.1499 29678.8201 187.9475 252.2161
ENERGY: 1500000 4.5784 5.6356 2.8497 0.0000 -10653.7901 1487.8442 0.0000 0.0000 1762.6880 -7390.1942 304.2445 -9152.8822 -7373.0875 299.8025 293.1452 360.9426 30090.7054 182.0417 245.2714
TCL: Running FEP window  11: Lambda1 0.49999999999999994 Lambda2 0.5499999999999999 [dLambda 0.04999999999999999]
TCL: Setting parameter firsttimestep to 0
TCL: Setting parameter alchLambda to 0.49999999999999994
Info: NONBONDED TABLE R-SQUARED SPACING: 0.0625
Info: NONBONDED TABLE SIZE: 705 POINTS
TCL: Setting parameter alchLambda2 to 0.5499999999999999
Info: NONBONDED TABLE R-SQUARED SPACING: 0.0625
Info: NONBONDED TABLE SIZE: 705 POINTS
TCL: Running for 1500000 steps
ETITLE: TS BOND ANGLE DIHED IMPRP ELECT VDW BOUNDARY MISC KINETIC TOTAL TEMP POTENTIAL TOTALAVG TEMPAVG PRESSURE GPRESSURE VOLUME PRESSAVG GPRESSAVG
ENERGY: 0 4.5784 5.6356 2.8497 0.0000 -10653.7898 1487.2217 0.0000 0.0000 1761.8114 -7391.6930 304.0932 -9153.5044 -7391.6930 304.0932 276.2340 363.3453 30090.7054 276.2340 363.3453
ENERGY: 300000 0.6589 3.8176 4.2868 0.0000 -10626.9492 1470.7027 0.0000 0.0000 1680.4483 -7467.0348 290.0498 -9147.4832 -7404.6678 298.9775 384.6430 458.2331 29812.5845 16.6052 90.4179
ENERGY: 600000 2.6360 4.4931 2.1889 0.0000 -10435.6153 1340.4553 0.0000 0.0000 1727.9022 -7357.9397 298.2404 -9085.8419 -7392.5191 298.3050 -613.3781 -539.2372 29897.1713 -85.4699 -13.7179
ENERGY: 900000 2.4282 7.5075 5.8883 0.0000 -10539.1287 1426.2391 0.0000 0.0000 1785.2569 -7311.8086 308.1400 -9097.0655 -7383.5002 298.7061 -0.0815 117.5388 29812.6226 -41.2346 37.1304
ENERGY: 1200000 2.7510 3.9039 3.3308 0.0000 -10507.5681 1449.3961 0.0000 0.0000 1778.1628 -7270.0235 306.9155 -9048.1863 -7374.8723 299.1505 543.8258 613.6469 29633.0787 -31.3009 46.1517
ENERGY: 1500000 3.0214 5.9176 3.3373 0.0000 -10603.7125 1437.0981 0.0000 0.0000 1747.3304 -7407.0078 301.5938 -9154.3382 -7369.0646 299.4173 -179.5696 -157.6663 30065.5905 -25.2461 42.4995
TCL: Running FEP window  12: Lambda1 0.5499999999999999 Lambda2 0.6    [dLambda 0.050000000000000044]
TCL: Setting parameter firsttimestep to 0
TCL: Setting parameter alchLambda to 0.5499999999999999
Info: NONBONDED TABLE R-SQUARED SPACING: 0.0625
Info: NONBONDED TABLE SIZE: 705 POINTS
TCL: Setting parameter alchLambda2 to 0.6
Info: NONBONDED TABLE R-SQUARED SPACING: 0.0625
Info: NONBONDED TABLE SIZE: 705 POINTS
TCL: Running for 1500000 steps
ETITLE: TS BOND ANGLE DIHED IMPRP ELECT VDW BOUNDARY MISC KINETIC TOTAL TEMP POTENTIAL TOTALAVG TEMPAVG PRESSURE GPRESSURE VOLUME PRESSAVG GPRESSAVG
ENERGY: 0 3.0214 5.9176 3.3373 0.0000 -10603.0995 1437.3265 0.0000 0.0000 1746.4282 -7407.0686 301.4381 -9153.4969 -7407.0686 301.4381 -226.0778 -147.4578 30065.5905 -226.0778 -147.4578
ENERGY: 300000 1.5750 3.9630 4.4143 0.0000 -10558.1647 1473.9012 0.0000 0.0000 1723.7081 -7350.6031 297.5165 -9074.3111 -7398.5567 300.1700 679.0949 688.6220 29804.4119 295.3836 345.0067
ENERGY: 600000 0.9331 6.1614 1.9928 0.0000 -10649.2035 1532.7981 0.0000 0.0000 1747.9073 -7359.4108 301.6933 -9107.3181 -7387.3048 301.0938 1021.5088 1075.9274 29940.3256 265.0032 313.1964
ENERGY: 900000 1.4605 7.0062 2.1479 0.0000 -10604.6257 1440.3876 0.0000 0.0000 1763.2702 -7390.3534 304.3450 -9153.6236 -7378.6079 302.9975 -181.8430 -64.2887 30250.1322 227.9210 289.1846
ENERGY: 1200000 3.9443 4.6223 2.7059 0.0000 -10688.7312 1466.1844 0.0000 0.0000 1743.0323 -7468.2420 300.8519 -9211.2743 -7386.7020 302.1341 185.6155 263.4828 29706.0134 115.1594 166.9561
ENERGY: 1500000 4.2311 7.0841 1.9491 0.0000 -10618.5501 1450.8420 0.0000 0.0000 1734.3150 -7420.1288 299.3473 -9154.4438 -7387.1012 300.7613 201.8894 329.6657 29617.8801 118.8154 172.3066
TCL: Running FEP window  13: Lambda1 0.6    Lambda2 0.65   [dLambda 0.050000000000000044]
TCL: Setting parameter firsttimestep to 0
TCL: Setting parameter alchLambda to 0.6
Info: NONBONDED TABLE R-SQUARED SPACING: 0.0625
Info: NONBONDED TABLE SIZE: 705 POINTS
TCL: Setting parameter alchLambda2 to 0.65
Info: NONBONDED TABLE R-SQUARED SPACING: 0.0625
Info: NONBONDED TABLE SIZE: 705 POINTS
TCL: Running for 1500000 steps
ETITLE: TS BOND ANGLE DIHED IMPRP ELECT VDW BOUNDARY MISC KINETIC TOTAL TEMP POTENTIAL TOTALAVG TEMPAVG PRESSURE GPRESSURE VOLUME PRESSAVG GPRESSAVG
ENERGY: 0 4.2311 7.0841 1.9491 0.0000 -10618.1029 1450.6710 0.0000 0.0000 1733.4856 -7420.6819 299.2041 -9154.1675 -7420.6819 299.2041 258.3040 338.2160 29617.8801 258.3040 338.2160
ENERGY: 300000 2.6105 7.4354 5.3555 0.0000 -10475.4360 1435.5454 0.0000 0.0000 1763.7146 -7260.7744 304.4217 -9024.4890 -7399.1685 296.8925 36.4077 104.6173 30541.0958 -88.3142 -18.0521
ENERGY: 600000 1.1030 5.1038 2.5609 0.0000 -10532.0844 1418.2898 0.0000 0.0000 1718.2230 -7386.8039 296.5698 -9105.0269 -7366.5685 297.2615 79.1174 119.5190 29815.4126 -132.5137 -75.6091
ENERGY: 900000 0.8524 7.6101 3.3825 0.0000 -10654.0617 1458.0104 0.0000 0.0000 1742.5170 -7441.6893 300.7630 -9184.2063 -7382.9597 298.2237 389.7533 423.5031 29545.6700 -4.0513 48.5609
ENERGY: 1200000 2.2856 6.7121 2.3243 0.0000 -10512.9114 1384.4798 0.0000 0.0000 1753.7176 -7363.3920 302.6962 -9117.1096 -7385.5466 297.9679 -67.6414 -51.1947 29751.8957 -46.6264 4.7794
ENERGY: 1500000 1.7401 7.5152 3.4732 0.0000 -10516.9577 1383.1457 0.0000 0.0000 1723.7794 -7397.3042 297.5288 -9121.0836 -7393.6807 298.0987 -462.1535 -384.2066 30242.7200 -109.9617 -54.9369
TCL: Running FEP window  14: Lambda1 0.65   Lambda2 0.7000000000000001 [dLambda 0.050000000000000044]
TCL: Setting parameter firsttimestep to 0
TCL: Setting parameter alchLambda to 0.65
Info: NONBONDED TABLE R-SQUARED SPACING: 0.0625
Info: NONBONDED TABLE SIZE: 705 POINTS
TCL: Setting parameter alchLambda2 to 0.7000000000000001
Info: NONBONDED TABLE R-SQUARED SPACING: 0.0625
Info: NONBONDED TABLE SIZE: 705 POINTS
TCL: Running for 1500000 steps
ETITLE: TS BOND ANGLE DIHED IMPRP ELECT VDW BOUNDARY MISC KINETIC TOTAL TEMP POTENTIAL TOTALAVG TEMPAVG PRESSURE GPRESSURE VOLUME PRESSAVG GPRESSAVG
ENERGY: 0 1.7401 7.5152 3.4732 0.0000 -10516.9961 1382.5941 0.0000 0.0000 1722.9275 -7398.7461 297.3818 -9121.6736 -7398.7461 297.3818 -457.3033 -382.5091 30242.7200 -457.3033 -382.5091
ENERGY: 300000 2.2379 3.0220 2.3264 0.0000 -10504.1741 1345.4960 0.0000 0.0000 1716.1720 -7434.9199 296.2158 -9151.0918 -7358.2970 303.1362 -605.3779 -522.0089 29760.8613 -216.1529 -126.0583
ENERGY: 600000 4.2036 5.5178 1.7836 0.0000 -10712.4712 1466.0197 0.0000 0.0000 1774.6713 -7460.2752 306.3129 -9234.9466 -7355.0349 304.1501 492.9396 555.3054 29666.4326 -92.0220 -12.4796
ENERGY: 900000 1.8506 9.1384 4.6973 0.0000 -10457.6536 1466.3937 0.0000 0.0000 1725.2400 -7250.3336 297.7809 -8975.5736 -7342.5739 303.2415 626.9368 680.0237 30177.6789 6.1522 73.4434
ENERGY: 1200000 5.6637 5.0765 1.5419 0.0000 -10591.9504 1408.2817 0.0000 0.0000 1720.9167 -7450.4698 297.0347 -9171.3866 -7361.7399 302.6325 -102.0350 -100.0779 29781.8542 38.2480 95.3222
ENERGY: 1500000 1.6417 3.8458 2.2416 0.0000 -10594.7623 1455.1629 0.0000 0.0000 1683.8664 -7448.0039 290.6397 -9131.8703 -7375.6889 300.7597 340.2848 395.5361 29680.0398 83.6489 143.3680
TCL: Running FEP window  15: Lambda1 0.7000000000000001 Lambda2 0.7500000000000001 [dLambda 0.050000000000000044]
TCL: Setting parameter firsttimestep to 0
TCL: Setting parameter alchLambda to 0.7000000000000001
Info: NONBONDED TABLE R-SQUARED SPACING: 0.0625
Info: NONBONDED TABLE SIZE: 705 POINTS
TCL: Setting parameter alchLambda2 to 0.7500000000000001
Info: NONBONDED TABLE R-SQUARED SPACING: 0.0625
Info: NONBONDED TABLE SIZE: 705 POINTS
TCL: Running for 1500000 steps
ETITLE: TS BOND ANGLE DIHED IMPRP ELECT VDW BOUNDARY MISC KINETIC TOTAL TEMP POTENTIAL TOTALAVG TEMPAVG PRESSURE GPRESSURE VOLUME PRESSAVG GPRESSAVG
ENERGY: 0 1.6417 3.8458 2.2416 0.0000 -10596.0343 1454.7298 0.0000 0.0000 1683.0137 -7450.5617 290.4925 -9133.5754 -7450.5617 290.4925 302.4954 397.4585 29680.0398 302.4954 397.4585
ENERGY: 300000 4.6120 5.7191 2.5294 0.0000 -10545.5038 1358.6470 0.0000 0.0000 1740.5804 -7433.4158 300.4287 -9173.9963 -7414.2053 299.0116 -771.3600 -724.3772 29993.3737 -104.6005 -45.4109
ENERGY: 600000 2.5269 5.2794 2.6131 0.0000 -10566.0099 1408.8948 0.0000 0.0000 1760.2792 -7386.4165 303.8288 -9146.6957 -7401.0262 299.2275 53.6609 127.5769 29439.2160 -17.2230 55.9599
ENERGY: 900000 1.9389 6.3381 0.9325 0.0000 -10484.2789 1386.2868 0.0000 0.0000 1724.6392 -7364.1434 297.6772 -9088.7826 -7399.6746 298.7584 -115.8431 -93.5535 29942.6768 -7.6486 63.3719
ENERGY: 1200000 2.4116 10.1571 2.0271 0.0000 -10529.4284 1395.9665 0.0000 0.0000 1697.7382 -7421.1278 293.0340 -9118.8660 -7399.8291 298.3018 -316.0751 -214.4387 30176.3490 62.2605 131.3150
ENERGY: 1500000 1.9219 5.1609 4.5602 0.0000 -10661.5129 1455.8401 0.0000 0.0000 1763.2431 -7430.7867 304.3404 -9194.0298 -7412.2667 298.0075 201.5977 242.3201 29761.9053 -2.8293 66.0034
TCL: Running FEP window  16: Lambda1 0.7500000000000001 Lambda2 0.8000000000000002 [dLambda 0.050000000000000044]
TCL: Setting parameter firsttimestep to 0
TCL: Setting parameter alchLambda to 0.7500000000000001
Info: NONBONDED TABLE R-SQUARED SPACING: 0.0625
Info: NONBONDED TABLE SIZE: 705 POINTS
TCL: Setting parameter alchLambda2 to 0.8000000000000002
Info: NONBONDED TABLE R-SQUARED SPACING: 0.0625
Info: NONBONDED TABLE SIZE: 705 POINTS
TCL: Running for 1500000 steps
ETITLE: TS BOND ANGLE DIHED IMPRP ELECT VDW BOUNDARY MISC KINETIC TOTAL TEMP POTENTIAL TOTALAVG TEMPAVG PRESSURE GPRESSURE VOLUME PRESSAVG GPRESSAVG
ENERGY: 0 1.9219 5.1609 4.5602 0.0000 -10661.8648 1455.8050 0.0000 0.0000 1762.4183 -7431.9986 304.1980 -9194.4168 -7431.9986 304.1980 183.2841 250.6818 29761.9053 183.2841 250.6818
ENERGY: 300000 2.8213 3.4036 3.1994 0.0000 -10564.7873 1439.9012 0.0000 0.0000 1681.6455 -7433.8163 290.2564 -9115.4617 -7380.9957 303.5396 248.1816 357.5362 29476.1314 119.2285 173.3495
ENERGY: 600000 2.3587 6.4193 4.0482 0.0000 -10616.5875 1433.3499 0.0000 0.0000 1748.2113 -7422.2000 301.7458 -9170.4113 -7383.1051 303.0806 280.0549 303.1250 29848.7440 128.1861 173.4383
ENERGY: 900000 2.8195 5.7821 1.9225 0.0000 -10518.2770 1378.8627 0.0000 0.0000 1743.4393 -7385.4508 300.9222 -9128.8902 -7388.3860 302.5725 -183.7882 -172.9722 30029.4076 19.7132 67.1926
ENERGY: 1200000 3.2888 7.0708 5.6247 0.0000 -10620.2365 1452.0500 0.0000 0.0000 1808.9898 -7343.2123 312.2363 -9152.2021 -7380.8428 303.5751 159.2239 194.2211 30110.7794 88.3589 131.8031
ENERGY: 1500000 2.6880 4.5842 1.7813 0.0000 -10558.3741 1400.7411 0.0000 0.0000 1737.7067 -7410.8728 299.9327 -9148.5796 -7385.3854 303.3648 -82.6430 -28.6399 29756.4866 82.7053 130.5802
TCL: Running FEP window  17: Lambda1 0.8000000000000002 Lambda2 0.8500000000000002 [dLambda 0.050000000000000044]
TCL: Setting parameter firsttimestep to 0
TCL: Setting parameter alchLambda to 0.8000000000000002
Info: NONBONDED TABLE R-SQUARED SPACING: 0.0625
Info: NONBONDED TABLE SIZE: 705 POINTS
TCL: Setting parameter alchLambda2 to 0.8500000000000002
Info: NONBONDED TABLE R-SQUARED SPACING: 0.0625
Info: NONBONDED TABLE SIZE: 705 POINTS
TCL: Running for 1500000 steps
ETITLE: TS BOND ANGLE DIHED IMPRP ELECT VDW BOUNDARY MISC KINETIC TOTAL TEMP POTENTIAL TOTALAVG TEMPAVG PRESSURE GPRESSURE VOLUME PRESSAVG GPRESSAVG
ENERGY: 0 2.6880 4.5842 1.7813 0.0000 -10561.9807 1403.8433 0.0000 0.0000 1736.8418 -7412.2422 299.7834 -9149.0840 -7412.2422 299.7834 -84.8017 3.6621 29756.4866 -84.8017 3.6621
ENERGY: 300000 4.0163 5.0279 3.9670 0.0000 -10517.5665 1390.9476 0.0000 0.0000 1771.7446 -7341.8630 305.8077 -9113.6077 -7358.9607 301.6133 -95.8575 -49.1949 29859.4891 -129.0356 -64.3056
ENERGY: 600000 5.5580 7.7597 3.5205 0.0000 -10508.0788 1392.9955 0.0000 0.0000 1750.4873 -7347.7578 302.1387 -9098.2451 -7349.6800 301.5822 -587.4801 -545.0361 30384.5589 -162.6724 -99.1484
ENERGY: 900000 2.1892 4.8096 2.7196 0.0000 -10503.3197 1374.6119 0.0000 0.0000 1769.1934 -7349.7959 305.3674 -9118.9893 -7358.1727 301.3022 -442.0049 -400.5334 30197.9551 -199.9848 -145.7805
ENERGY: 1200000 3.5896 6.1733 4.2285 0.0000 -10478.4092 1391.1432 0.0000 0.0000 1695.4988 -7377.7760 292.6475 -9073.2747 -7371.9757 299.1671 -208.2764 -167.4168 30047.9997 -117.2909 -61.7501
ENERGY: 1500000 4.4277 8.7711 7.9808 0.0000 -10480.8748 1390.8329 0.0000 0.0000 1740.0111 -7328.8512 300.3304 -9068.8623 -7368.4299 299.5591 -427.4100 -303.4973 30396.7846 -111.9939 -57.2757
TCL: Running FEP window  18: Lambda1 0.8500000000000002 Lambda2 0.9000000000000002 [dLambda 0.050000000000000044]
TCL: Setting parameter firsttimestep to 0
TCL: Setting parameter alchLambda to 0.8500000000000002
Info: NONBONDED TABLE R-SQUARED SPACING: 0.0625
Info: NONBONDED TABLE SIZE: 705 POINTS
TCL: Setting parameter alchLambda2 to 0.9000000000000002
Info: NONBONDED TABLE R-SQUARED SPACING: 0.0625
Info: NONBONDED TABLE SIZE: 705 POINTS
TCL: Running for 1500000 steps
ETITLE: TS BOND ANGLE DIHED IMPRP ELECT VDW BOUNDARY MISC KINETIC TOTAL TEMP POTENTIAL TOTALAVG TEMPAVG PRESSURE GPRESSURE VOLUME PRESSAVG GPRESSAVG
ENERGY: 0 4.4277 8.7711 7.9808 0.0000 -10483.1664 1391.2919 0.0000 0.0000 1739.1137 -7331.5812 300.1755 -9070.6949 -7331.5812 300.1755 -374.9534 -293.5542 30396.7846 -374.9534 -293.5542
ENERGY: 300000 2.9984 8.6284 1.6202 0.0000 -10514.1048 1433.2792 0.0000 0.0000 1718.4551 -7349.1236 296.6098 -9067.5787 -7359.5747 301.1279 -41.5057 19.8934 30678.7481 -232.3329 -174.8554
ENERGY: 600000 2.5902 4.3393 2.7112 0.0000 -10468.3322 1384.2026 0.0000 0.0000 1728.9689 -7345.5201 298.4245 -9074.4890 -7371.6882 299.7092 -67.9292 14.8805 30039.4360 -145.0057 -71.2046
ENERGY: 900000 6.0075 10.3593 4.1509 0.0000 -10463.4494 1448.8560 0.0000 0.0000 1708.5243 -7285.5514 294.8957 -8994.0757 -7361.1796 298.8431 615.2892 690.8841 30088.8166 -34.5279 24.9193
ENERGY: 1200000 1.8499 6.9491 1.5654 0.0000 -10600.1887 1413.4135 0.0000 0.0000 1758.8786 -7417.5322 303.5870 -9176.4109 -7370.2928 299.4943 -75.0255 72.7844 29893.2020 -34.7874 34.2968
ENERGY: 1500000 2.0086 12.3436 2.0615 0.0000 -10500.9929 1358.5825 0.0000 0.0000 1724.9434 -7401.0535 297.7297 -9125.9969 -7382.2117 298.7024 -460.2187 -435.5218 30135.7868 -12.8155 52.0279
TCL: Running FEP window  19: Lambda1 0.9000000000000002 Lambda2 0.9500000000000003 [dLambda 0.050000000000000044]
TCL: Setting parameter firsttimestep to 0
TCL: Setting parameter alchLambda to 0.9000000000000002
Info: NONBONDED TABLE R-SQUARED SPACING: 0.0625
Info: NONBONDED TABLE SIZE: 705 POINTS
TCL: Setting parameter alchLambda2 to 0.9500000000000003
Info: NONBONDED TABLE R-SQUARED SPACING: 0.0625
Info: NONBONDED TABLE SIZE: 705 POINTS
TCL: Running for 1500000 steps
ETITLE: TS BOND ANGLE DIHED IMPRP ELECT VDW BOUNDARY MISC KINETIC TOTAL TEMP POTENTIAL TOTALAVG TEMPAVG PRESSURE GPRESSURE VOLUME PRESSAVG GPRESSAVG
ENERGY: 0 2.0086 12.3436 2.0615 0.0000 -10503.2202 1360.4094 0.0000 0.0000 1724.0724 -7402.3248 297.5794 -9126.3972 -7402.3248 297.5794 -495.7769 -409.1869 30135.7868 -495.7769 -409.1869
ENERGY: 300000 3.6503 5.7018 3.1393 0.0000 -10517.9015 1433.4444 0.0000 0.0000 1766.5349 -7305.4307 304.9085 -9071.9656 -7393.8798 300.8004 242.6229 289.1267 30134.6247 -403.9434 -333.6508
ENERGY: 600000 1.0158 6.5427 4.4976 0.0000 -10487.9290 1350.5484 0.0000 0.0000 1770.9509 -7354.3737 305.6707 -9125.3246 -7371.6423 301.4138 -194.6116 -209.2048 29681.4360 -184.0628 -121.4632
ENERGY: 900000 3.5980 7.1527 5.1466 0.0000 -10646.6315 1505.9479 0.0000 0.0000 1749.8282 -7374.9582 302.0249 -9124.7863 -7374.9369 300.1292 733.4353 780.6027 29815.5592 -3.6856 56.6033
ENERGY: 1200000 2.0466 5.6882 4.0177 0.0000 -10453.5591 1359.7021 0.0000 0.0000 1794.7837 -7287.3208 309.7843 -9082.1045 -7372.4053 300.0560 -254.7641 -183.3301 30054.4528 23.4230 85.9968
ENERGY: 1500000 2.8968 7.2657 2.4583 0.0000 -10516.2411 1401.3775 0.0000 0.0000 1737.8698 -7364.3731 299.9608 -9102.2428 -7381.2573 299.9290 -59.3591 -39.0366 30181.3495 43.6746 96.6888
TCL: Running FEP window  20: Lambda1 0.9500000000000003 Lambda2 1.0    [dLambda 0.04999999999999971]
TCL: Setting parameter firsttimestep to 0
TCL: Setting parameter alchLambda to 0.9500000000000003
Info: NONBONDED TABLE R-SQUARED SPACING: 0.0625
Info: NONBONDED TABLE SIZE: 705 POINTS
TCL: Setting parameter alchLambda2 to 1.0
Info: NONBONDED TABLE R-SQUARED SPACING: 0.0625
Info: NONBONDED TABLE SIZE: 705 POINTS
TCL: Running for 1500000 steps
ETITLE: TS BOND ANGLE DIHED IMPRP ELECT VDW BOUNDARY MISC KINETIC TOTAL TEMP POTENTIAL TOTALAVG TEMPAVG PRESSURE GPRESSURE VOLUME PRESSAVG GPRESSAVG
ENERGY: 0 2.8968 7.2657 2.4583 0.0000 -10517.7975 1401.5020 0.0000 0.0000 1736.9506 -7366.7240 299.8022 -9103.6746 -7366.7240 299.8022 -111.2227 -30.0477 30181.3495 -111.2227 -30.0477
ENERGY: 300000 2.2984 4.9932 2.2002 0.0000 -10674.9896 1515.3799 0.0000 0.0000 1730.1418 -7419.9761 298.6270 -9150.1179 -7408.4497 298.5262 735.5959 806.2658 29672.1100 -132.8702 -52.0148
ENERGY: 600000 2.4858 6.9042 3.7492 0.0000 -10532.1474 1394.1998 0.0000 0.0000 1712.6167 -7412.1916 295.6021 -9124.8084 -7407.4278 297.8012 -116.2562 -49.0742 30076.4923 -2.2385 67.3660
ENERGY: 900000 3.2092 7.2335 1.4258 0.0000 -10612.9251 1444.7591 0.0000 0.0000 1729.0515 -7427.2460 298.4388 -9156.2974 -7409.6417 297.6627 -10.0282 55.0456 29895.7270 -4.9358 57.4468
ENERGY: 1200000 1.8914 6.7313 3.1148 0.0000 -10543.5409 1396.4175 0.0000 0.0000 1749.5767 -7385.8092 301.9815 -9135.3859 -7421.4656 298.1427 71.0338 122.3787 29568.8604 -64.1219 6.5454
ENERGY: 1500000 2.4972 11.0772 3.7670 0.0000 -10486.3549 1350.3901 0.0000 0.0000 1739.0916 -7379.5318 300.1717 -9118.6234 -7414.2456 298.9547 -478.0274 -363.3785 30180.1999 -108.5136 -32.3754
TCL: Exiting due to exit command.
