Info: SIMULATION PARAMETERS:
Info: TIMESTEP               2
Info: NUMBER OF STEPS        0
Info: STEPS PER CYCLE        10
Info: PERIODIC CELL BASIS 1  30.3396 0 0
Info: PERIODIC CELL BASIS 2  0 29.7498 0
Info: PERIODIC CELL BASIS 3  0 0 33.2169
Info: PERIODIC CELL CENTER   0 0 0
Info: WRAPPING WATERS AROUND PERIODIC BOUNDARIES ON OUTPUT.
Info: WRAPPING ALL CLUSTERS AROUND PERIODIC BOUNDARIES ON OUTPUT.
Info: FIRST LDB TIMESTEP     50
Info: LAST LDB TIMESTEP     -1
Info: HOM BACKGROUND SCALING 1
Info: PME BACKGROUND SCALING 1
Info: MIN ATOMS PER PATCH    40
Info: EMPTY PATCH LOAD       40 ATOMS
Info: VELOCITY FILE          mobley_2802855_equil.vel
Info: CENTER OF MASS MOVING INITIALLY? NO
Info: DIELECTRIC             1
Info: EXCLUDE                SCALED ONE-FOUR
Info: 1-4 ELECTROSTATICS SCALED BY 0.833333
Info: MODIFIED 1-4 VDW PARAMETERS WILL BE USED
Info: DCD FILENAME           mobley_2802855_prod.dcd
Info: DCD FREQUENCY          100000
Info: DCD FIRST STEP         100000
Info: DCD FILE WILL CONTAIN UNIT CELL DATA
Info: XST FILENAME           mobley_2802855_prod.xst
Info: XST FREQUENCY          100000
Info: NO VELOCITY DCD OUTPUT
Info: NO FORCE DCD OUTPUT
Info: OUTPUT FILENAME        mobley_2802855_prod
Info: BINARY OUTPUT FILES WILL BE USED
Info: RESTART FILENAME       mobley_2802855_prod.restart
Info: RESTART FREQUENCY      100000
Info: BINARY RESTART FILES WILL BE USED
Info: CUTOFF                 9
Info: PAIRLIST DISTANCE      11
Info: PAIRLIST SHRINK RATE   0.01
Info: PAIRLIST GROW RATE     0.01
Info: PAIRLIST TRIGGER       0.3
Info: PAIRLISTS PER CYCLE    2
Info: PAIRLISTS ENABLED
Info: MARGIN                 2
Info: HYDROGEN GROUP CUTOFF  2.5
Info: PATCH DIMENSION        15.5
Info: ENERGY OUTPUT STEPS    100000
Info: ENERGY EVALUATION STEPS    100000
Info: OUTPUT ENERGY PRECISION 4
Info: CROSSTERM ENERGY INCLUDED IN DIHEDRAL
Info: TIMING OUTPUT STEPS    1000000
Info: PRESSURE OUTPUT STEPS  100000
Info: ALCHEMICAL FEP ON
Info: FEP CURRENT LAMBDA VALUE     1
Info: FEP COMPARISON LAMBDA VALUE  0.95
Info: FEP INTRA-ALCHEMICAL NON-BONDED INTERACTIONS WILL BE RETAINED
Info: FEP INTRA-ALCHEMICAL BONDED INTERACTIONS WILL BE RETAINED
Info: FEP VDW SHIFTING COEFFICIENT 5
Info: FEP ELEC. ACTIVE FOR ANNIHILATED PARTICLES BETWEEN LAMBDA = 0 AND LAMBDA = 0.5
Info: FEP ELEC. ACTIVE FOR EXNIHILATED PARTICLES BETWEEN LAMBDA = 0.5 AND LAMBDA = 1
Info: FEP VDW ACTIVE FOR ANNIHILATED PARTICLES BETWEEN LAMBDA = 0 AND LAMBDA = 1
Info: FEP VDW ACTIVE FOR EXNIHILATED PARTICLES BETWEEN LAMBDA = 0 AND LAMBDA = 1
Info: FEP BOND ACTIVE FOR ANNIHILATED PARTICLES BETWEEN LAMBDA = 1 AND LAMBDA = 1
Info: FEP BOND ACTIVE FOR EXNIHILATED PARTICLES BETWEEN LAMBDA = 0 AND LAMBDA = 0
Info: LANGEVIN DYNAMICS ACTIVE
Info: LANGEVIN TEMPERATURE   300
Info: LANGEVIN USING BBK INTEGRATOR
Info: LANGEVIN DAMPING COEFFICIENT IS 1 INVERSE PS
Info: LANGEVIN DYNAMICS APPLIED TO HYDROGENS
Info: LANGEVIN PISTON PRESSURE CONTROL ACTIVE
Info:        TARGET PRESSURE IS 1.01325 BAR
Info:     OSCILLATION PERIOD IS 50 FS
Info:             DECAY TIME IS 25 FS
Info:     PISTON TEMPERATURE IS 300 K
Info:       PRESSURE CONTROL IS GROUP-BASED
Info:    INITIAL STRAIN RATE IS -0.000328928 -0.000328928 -0.000328928
Info:       CELL FLUCTUATION IS ISOTROPIC
Info: PARTICLE MESH EWALD (PME) ACTIVE
Info: PME TOLERANCE               1e-06
Info: PME EWALD COEFFICIENT       0.348832
Info: PME INTERPOLATION ORDER     4
Info: PME GRID DIMENSIONS         32 32 36
Info: PME MAXIMUM GRID SPACING    1
Info: PME CALCULATION WILL BE PERFORMED ON GPU
Info: FULL ELECTROSTATIC EVALUATION FREQUENCY      2
Info: USING VERLET I (r-RESPA) MTS SCHEME.
Info: C1 SPLITTING OF LONG RANGE ELECTROSTATICS
Info: PLACING ATOMS IN PATCHES BY HYDROGEN GROUPS
Info: RIGID BONDS TO HYDROGEN : ALL
Info:         ERROR TOLERANCE : 1e-08
Info:          MAX ITERATIONS : 100
Info: RIGID WATER USING SETTLE ALGORITHM
Info: RANDOM NUMBER SEED     1743829704
Info: USE HYDROGEN BONDS?    NO
Info: Using AMBER format force field!
Info: AMBER PARM FILE        mobley_2802855.prmtop
Info: COORDINATE PDB         mobley_2802855.pdb
Info: Exclusions will be read from PARM file!
Info: SCNB (VDW SCALING)     2
Info: USING ARITHMETIC MEAN TO COMBINE L-J SIGMA PARAMETERS
Info: BINARY COORDINATES     mobley_2802855_equil.coor
Info: SUMMARY OF PARAMETERS:
Info: 6 BONDS
Info: 7 ANGLES
Info:   7 HARMONIC
Info:   0 COSINE-BASED
Info: 8 DIHEDRAL
Info: 0 IMPROPER
Info: 0 CROSSTERM
Info: 0 VDW
Info: 21 VDW_PAIRS
Info: 0 NBTHOLE_PAIRS
Info: To read alchdata from file: mobley_2802855.pdb
Info: To read alchflag data from column: 5
Info: STRUCTURE SUMMARY:
Info: 2963 ATOMS
Info: 2962 BONDS
Info: 24 ANGLES
Info: 31 DIHEDRALS
Info: 0 IMPROPERS
Info: 0 CROSSTERMS
Info: 3013 EXCLUSIONS
Info: 2958 RIGID BONDS
Info: ALCH: 0 ATOMS TO DISAPPEAR IN FINAL STATE
Info: ALCH: 14 ATOMS TO APPEAR IN FINAL STATE
Info: 5931 DEGREES OF FREEDOM
Info: 988 HYDROGEN GROUPS
Info: 4 ATOMS IN LARGEST HYDROGEN GROUP
Info: 988 MIGRATION GROUPS
Info: 4 ATOMS IN LARGEST MIGRATION GROUP
Info: TOTAL MASS = 17846.7 amu
Info: TOTAL CHARGE = -9.99887e-05 e
Info: MASS DENSITY = 0.988475 g/cm^3
Info: ATOM DENSITY = 0.0988278 atoms/A^3
Info: ADDED 0 IMPLICIT EXCLUSIONS
Info: NONBONDED TABLE R-SQUARED SPACING: 0.0625
Info: NONBONDED TABLE SIZE: 705 POINTS
Info: REMOVING COM VELOCITY 0.0407761 0.0641024 0.0911643
Info: Use 3D box decompostion in PME FFT.
Info: Updated CUDA force table with 4096 elements.
Info: Updated CUDA LJ table with 6 x 6 elements.
Info: Found 17 unique exclusion lists needing 36 bytes
TCL: Running for 1500000 steps
ETITLE: TS BOND ANGLE DIHED IMPRP ELECT VDW BOUNDARY MISC KINETIC TOTAL TEMP POTENTIAL TOTALAVG TEMPAVG PRESSURE GPRESSURE VOLUME PRESSAVG GPRESSAVG
ENERGY: 0 0.1289 5.7830 2.6115 0.0000 -10781.7298 1484.9618 0.0000 0.0000 1777.9924 -7510.2522 301.7119 -9288.2446 -7510.2522 301.7119 740.0865 835.3075 29981.4424 740.0865 835.3075
ENERGY: 300000 0.9326 5.0037 2.9698 0.0000 -10588.8209 1388.4889 0.0000 0.0000 1784.2116 -7407.2144 302.7672 -9191.4260 -7531.9151 299.3950 -341.9812 -169.4188 30717.0060 9.5510 89.3570
ENERGY: 600000 2.5723 10.1660 2.4945 0.0000 -10853.5720 1491.4307 0.0000 0.0000 1747.7973 -7599.1111 296.5880 -9346.9084 -7527.7441 298.7942 378.8022 462.2816 30140.3630 188.3857 269.4343
ENERGY: 900000 0.3681 5.2668 1.3231 0.0000 -10754.4021 1418.9369 0.0000 0.0000 1769.3877 -7559.1195 300.2517 -9328.5073 -7512.9294 299.3757 -149.4158 -41.7292 30214.3354 104.3940 183.3267
ENERGY: 1200000 2.5254 4.5408 2.0500 0.0000 -10706.7617 1432.7554 0.0000 0.0000 1751.9281 -7512.9619 297.2889 -9264.8900 -7518.1913 299.2607 -112.4305 -66.6723 30604.0497 44.9781 116.8182
ENERGY: 1500000 2.9363 6.8190 2.7347 0.0000 -10820.4043 1462.8577 0.0000 0.0000 1787.8064 -7557.2500 303.3772 -9345.0564 -7524.5620 298.6779 191.9189 311.1370 30411.8438 -19.9643 59.1556
TCL: Running FEP window   2: Lambda1 0.95   Lambda2 0.8999999999999999 [dLambda -0.050000000000000044]
TCL: Setting parameter firsttimestep to 0
TCL: Setting parameter alchLambda to 0.95
Info: NONBONDED TABLE R-SQUARED SPACING: 0.0625
Info: NONBONDED TABLE SIZE: 705 POINTS
TCL: Setting parameter alchLambda2 to 0.8999999999999999
Info: NONBONDED TABLE R-SQUARED SPACING: 0.0625
Info: NONBONDED TABLE SIZE: 705 POINTS
TCL: Running for 1500000 steps
ETITLE: TS BOND ANGLE DIHED IMPRP ELECT VDW BOUNDARY MISC KINETIC TOTAL TEMP POTENTIAL TOTALAVG TEMPAVG PRESSURE GPRESSURE VOLUME PRESSAVG GPRESSAVG
ENERGY: 0 2.9363 6.8190 2.7347 0.0000 -10820.1251 1462.2829 0.0000 0.0000 1786.9283 -7558.4238 303.2282 -9345.3521 -7558.4238 303.2282 207.0279 288.1866 30411.8438 207.0279 288.1866
ENERGY: 300000 0.0698 4.2627 1.9607 0.0000 -10779.5102 1455.0077 0.0000 0.0000 1779.6616 -7538.5478 301.9951 -9318.2094 -7553.7894 301.1799 114.5451 151.0939 30377.7126 270.4995 332.0068
ENERGY: 600000 0.9268 4.2897 2.3089 0.0000 -10744.0405 1485.8701 0.0000 0.0000 1773.5400 -7477.1051 300.9563 -9250.6451 -7520.3451 301.4022 582.2297 599.3352 30447.6769 190.1937 246.2388
ENERGY: 900000 3.2234 3.6012 4.3166 0.0000 -10684.4283 1417.9357 0.0000 0.0000 1727.7969 -7527.5546 293.1940 -9255.3515 -7515.3019 299.8935 -11.3235 75.3006 30304.3852 194.3114 260.0496
ENERGY: 1200000 0.2822 8.3240 1.5801 0.0000 -10827.1235 1501.0411 0.0000 0.0000 1745.5726 -7570.3236 296.2105 -9315.8962 -7519.7228 300.2121 559.5260 590.7320 30255.2953 204.4533 268.7105
ENERGY: 1500000 0.2608 4.7798 5.1452 0.0000 -10679.9112 1415.6174 0.0000 0.0000 1719.1456 -7534.9623 291.7260 -9254.1080 -7517.8216 299.7186 -445.3005 -327.1857 30995.3365 90.3060 160.3014
TCL: Running FEP window   3: Lambda1 0.8999999999999999 Lambda2 0.8499999999999999 [dLambda -0.050000000000000044]
TCL: Setting parameter firsttimestep to 0
TCL: Setting parameter alchLambda to 0.8999999999999999
Info: NONBONDED TABLE R-SQUARED SPACING: 0.0625
Info: NONBONDED TABLE SIZE: 705 POINTS
TCL: Setting parameter alchLambda2 to 0.8499999999999999
Info: NONBONDED TABLE R-SQUARED SPACING: 0.0625
Info: NONBONDED TABLE SIZE: 705 POINTS
TCL: Running for 1500000 steps
ETITLE: TS BOND ANGLE DIHED IMPRP ELECT VDW BOUNDARY MISC KINETIC TOTAL TEMP POTENTIAL TOTALAVG TEMPAVG PRESSURE GPRESSURE VOLUME PRESSAVG GPRESSAVG
ENERGY: 0 0.2608 4.7798 5.1452 0.0000 -10679.5491 1415.5534 0.0000 0.0000 1718.2637 -7535.5461 291.5763 -9253.8098 -7535.5461 291.5763 -427.2049 -336.0148 30995.3365 -427.2049 -336.0148
ENERGY: 300000 3.1292 4.4329 3.5163 0.0000 -10625.2898 1402.7918 0.0000 0.0000 1753.9522 -7457.4675 297.6324 -9211.4196 -7522.8762 295.8255 -96.3400 -60.3835 30508.9487 -360.5883 -283.5220
ENERGY: 600000 1.2653 5.9218 2.6435 0.0000 -10766.2301 1441.4489 0.0000 0.0000 1773.5868 -7541.3639 300.9642 -9314.9506 -7523.1465 297.9422 192.1093 249.3730 30314.5119 -165.3548 -94.2941
ENERGY: 900000 0.4760 4.8515 1.5940 0.0000 -10675.3324 1380.8000 0.0000 0.0000 1836.7045 -7450.9064 311.6748 -9287.6109 -7516.2865 299.6422 -307.5108 -236.8405 30252.7821 -271.5062 -215.5764
ENERGY: 1200000 0.1346 5.2571 3.5189 0.0000 -10748.6141 1468.3291 0.0000 0.0000 1715.5541 -7555.8203 291.1165 -9271.3744 -7514.2379 298.9890 -140.1065 -86.1331 31303.5143 -287.9042 -234.1932
ENERGY: 1500000 1.8947 5.7605 1.5287 0.0000 -10715.4552 1455.7424 0.0000 0.0000 1773.0720 -7477.4570 300.8769 -9250.5289 -7511.5174 298.6532 184.1944 241.8011 30729.3273 -271.5276 -225.4742
TCL: Running FEP window   4: Lambda1 0.8499999999999999 Lambda2 0.7999999999999998 [dLambda -0.050000000000000044]
TCL: Setting parameter firsttimestep to 0
TCL: Setting parameter alchLambda to 0.8499999999999999
Info: NONBONDED TABLE R-SQUARED SPACING: 0.0625
Info: NONBONDED TABLE SIZE: 705 POINTS
TCL: Setting parameter alchLambda2 to 0.7999999999999998
Info: NONBONDED TABLE R-SQUARED SPACING: 0.0625
Info: NONBONDED TABLE SIZE: 705 POINTS
TCL: Running for 1500000 steps
ETITLE: TS BOND ANGLE DIHED IMPRP ELECT VDW BOUNDARY MISC KINETIC TOTAL TEMP POTENTIAL TOTALAVG TEMPAVG PRESSURE GPRESSURE VOLUME PRESSAVG GPRESSAVG
ENERGY: 0 1.8947 5.7605 1.5287 0.0000 -10715.3043 1455.7632 0.0000 0.0000 1772.2009 -7478.1564 300.7291 -9250.3572 -7478.1564 300.7291 130.2608 226.5254 30729.3273 130.2608 226.5254
ENERGY: 300000 2.2648 4.9637 2.0367 0.0000 -10749.1002 1418.1980 0.0000 0.0000 1823.9129 -7497.7242 309.5042 -9321.6370 -7526.9275 301.7698 -333.6326 -194.2138 30311.7232 -391.5642 -310.2944
ENERGY: 600000 0.5925 3.9100 1.9112 0.0000 -10731.0839 1447.3166 0.0000 0.0000 1742.3136 -7535.0400 295.6574 -9277.3536 -7537.9722 299.2686 80.0966 162.0990 30569.9055 -252.9501 -181.5161
ENERGY: 900000 1.3896 7.6782 2.3736 0.0000 -10757.0556 1462.9444 0.0000 0.0000 1791.3640 -7491.3057 303.9809 -9282.6697 -7521.2031 300.7507 73.9007 133.7137 30577.6076 -95.3268 -27.6753
ENERGY: 1200000 0.4580 7.3204 3.0255 0.0000 -10713.3175 1359.9122 0.0000 0.0000 1856.1738 -7486.4277 314.9786 -9342.6015 -7524.8732 301.8004 -684.1067 -639.0496 30221.5313 -106.2413 -47.0168
ENERGY: 1500000 1.2407 2.2879 2.7736 0.0000 -10776.9404 1449.8433 0.0000 0.0000 1789.1270 -7531.6679 303.6013 -9320.7949 -7537.8508 300.9059 -90.1028 -59.3626 30374.9065 -94.7285 -38.4970
TCL: Running FEP window   5: Lambda1 0.7999999999999998 Lambda2 0.7499999999999998 [dLambda -0.050000000000000044]
TCL: Setting parameter firsttimestep to 0
TCL: Setting parameter alchLambda to 0.7999999999999998
Info: NONBONDED TABLE R-SQUARED SPACING: 0.0625
Info: NONBONDED TABLE SIZE: 705 POINTS
TCL: Setting parameter alchLambda2 to 0.7499999999999998
Info: NONBONDED TABLE R-SQUARED SPACING: 0.0625
Info: NONBONDED TABLE SIZE: 705 POINTS
TCL: Running for 1500000 steps
ETITLE: TS BOND ANGLE DIHED IMPRP ELECT VDW BOUNDARY MISC KINETIC TOTAL TEMP POTENTIAL TOTALAVG TEMPAVG PRESSURE GPRESSURE VOLUME PRESSAVG GPRESSAVG
ENERGY: 0 1.2407 2.2879 2.7736 0.0000 -10776.4986 1449.9988 0.0000 0.0000 1788.2429 -7531.9546 303.4513 -9320.1976 -7531.9546 303.4513 -156.6319 -67.5150 30374.9065 -156.6319 -67.5150
ENERGY: 300000 1.6364 5.3087 3.0899 0.0000 -10826.0788 1548.7453 0.0000 0.0000 1755.9185 -7511.3798 297.9661 -9267.2984 -7483.5916 303.7918 576.9835 625.3021 30798.4664 114.0207 164.6823
ENERGY: 600000 0.6477 8.8374 1.4968 0.0000 -10821.3366 1502.0611 0.0000 0.0000 1777.8940 -7530.3996 301.6952 -9308.2936 -7494.4298 302.3857 887.7705 890.1849 29831.8996 179.9501 221.5805
ENERGY: 900000 1.0776 9.0193 2.9441 0.0000 -10782.3724 1496.6532 0.0000 0.0000 1751.8744 -7520.8037 297.2798 -9272.6782 -7502.2091 300.8606 325.0161 354.6553 30818.9983 148.2412 195.2925
ENERGY: 1200000 1.8178 4.4735 2.1366 0.0000 -10722.6040 1440.7162 0.0000 0.0000 1775.4557 -7498.0042 301.2814 -9273.4599 -7496.0364 302.2737 40.0300 46.4173 30505.5775 43.9078 85.8190
ENERGY: 1500000 0.7640 6.2772 1.3933 0.0000 -10691.3474 1407.9934 0.0000 0.0000 1826.6797 -7448.2399 309.9737 -9274.9196 -7492.7586 302.4726 -248.6169 -181.3373 30661.2768 -60.1350 -9.2984
TCL: Running FEP window   6: Lambda1 0.7499999999999998 Lambda2 0.6999999999999997 [dLambda -0.050000000000000044]
TCL: Setting parameter firsttimestep to 0
TCL: Setting parameter alchLambda to 0.7499999999999998
Info: NONBONDED TABLE R-SQUARED SPACING: 0.0625
Info: NONBONDED TABLE SIZE: 705 POINTS
TCL: Setting parameter alchLambda2 to 0.6999999999999997
Info: NONBONDED TABLE R-SQUARED SPACING: 0.0625
Info: NONBONDED TABLE SIZE: 705 POINTS
TCL: Running for 1500000 steps
ETITLE: TS BOND ANGLE DIHED IMPRP ELECT VDW BOUNDARY MISC KINETIC TOTAL TEMP POTENTIAL TOTALAVG TEMPAVG PRESSURE GPRESSURE VOLUME PRESSAVG GPRESSAVG
ENERGY: 0 0.7640 6.2772 1.3933 0.0000 -10691.1513 1408.3800 0.0000 0.0000 1825.7949 -7448.5419 309.8236 -9274.3368 -7448.5419 309.8236 -264.3282 -182.5558 30661.2768 -264.3282 -182.5558
ENERGY: 300000 0.8763 6.3130 2.2850 0.0000 -10860.8604 1554.4283 0.0000 0.0000 1770.3536 -7526.6042 300.4156 -9296.9578 -7510.7917 302.5766 1091.4657 1126.5244 30223.7461 98.1874 137.7645
ENERGY: 600000 0.8310 6.4980 3.9238 0.0000 -10691.9917 1461.6724 0.0000 0.0000 1785.7596 -7433.3069 303.0299 -9219.0666 -7497.6177 302.1337 251.8404 315.3586 30375.5113 111.7876 171.1784
ENERGY: 900000 1.1108 9.8100 3.0714 0.0000 -10851.0051 1509.5442 0.0000 0.0000 1819.6556 -7507.8132 308.7818 -9327.4688 -7494.2273 303.1744 313.7587 414.0987 30473.1524 146.7326 206.1045
ENERGY: 1200000 1.0387 5.1827 1.5653 0.0000 -10677.1791 1444.7760 0.0000 0.0000 1746.9137 -7477.7027 296.4380 -9224.6164 -7487.0331 302.7100 439.2480 471.4468 30082.8788 243.0330 301.6140
ENERGY: 1500000 0.4089 7.6491 3.5539 0.0000 -10870.1626 1531.5906 0.0000 0.0000 1774.5728 -7552.3873 301.1316 -9326.9601 -7492.9553 302.1123 443.0803 522.0588 30514.9899 236.4183 299.3140
TCL: Running FEP window   7: Lambda1 0.6999999999999997 Lambda2 0.6499999999999997 [dLambda -0.050000000000000044]
TCL: Setting parameter firsttimestep to 0
TCL: Setting parameter alchLambda to 0.6999999999999997
Info: NONBONDED TABLE R-SQUARED SPACING: 0.0625
Info: NONBONDED TABLE SIZE: 705 POINTS
TCL: Setting parameter alchLambda2 to 0.6499999999999997
Info: NONBONDED TABLE R-SQUARED SPACING: 0.0625
Info: NONBONDED TABLE SIZE: 705 POINTS
TCL: Running for 1500000 steps
ETITLE: TS BOND ANGLE DIHED IMPRP ELECT VDW BOUNDARY MISC KINETIC TOTAL TEMP POTENTIAL TOTALAVG TEMPAVG PRESSURE GPRESSURE VOLUME PRESSAVG GPRESSAVG
ENERGY: 0 0.4089 7.6491 3.5539 0.0000 -10869.8269 1532.0262 0.0000 0.0000 1773.6858 -7552.5030 300.9810 -9326.1887 -7552.5030 300.9810 450.4623 519.1558 30514.9899 450.4623 519.1558
ENERGY: 300000 1.7627 5.7638 2.7972 0.0000 -10637.6646 1462.2864 0.0000 0.0000 1744.1670 -7420.8875 295.9719 -9165.0545 -7502.1738 301.4211 309.5008 346.7941 30830.7720 131.2183 178.6225
ENERGY: 600000 0.9600 6.9356 2.8682 0.0000 -10767.1635 1461.4796 0.0000 0.0000 1788.6211 -7506.2990 303.5155 -9294.9201 -7513.3820 302.5896 -17.0128 109.4686 30286.3374 -15.6393 50.3224
ENERGY: 900000 0.8402 8.1514 2.6404 0.0000 -10705.8121 1453.8266 0.0000 0.0000 1801.3983 -7438.9553 305.6836 -9240.3535 -7515.2946 302.1611 88.3728 222.7421 30270.5613 18.2859 91.0514
ENERGY: 1200000 1.7596 5.2739 1.8706 0.0000 -10789.3071 1496.5009 0.0000 0.0000 1740.9999 -7542.9021 295.4345 -9283.9021 -7524.4403 301.0657 516.3246 574.3549 30275.7398 38.9771 105.7482
ENERGY: 1500000 1.5185 9.7920 2.1569 0.0000 -10829.1121 1498.0998 0.0000 0.0000 1760.3221 -7557.2226 298.7133 -9317.5448 -7523.6917 300.7296 543.8721 552.9869 30192.2707 100.4255 166.6443
TCL: Running FEP window   8: Lambda1 0.6499999999999997 Lambda2 0.5999999999999996 [dLambda -0.050000000000000044]
TCL: Setting parameter firsttimestep to 0
TCL: Setting parameter alchLambda to 0.6499999999999997
Info: NONBONDED TABLE R-SQUARED SPACING: 0.0625
Info: NONBONDED TABLE SIZE: 705 POINTS
TCL: Setting parameter alchLambda2 to 0.5999999999999996
Info: NONBONDED TABLE R-SQUARED SPACING: 0.0625
Info: NONBONDED TABLE SIZE: 705 POINTS
TCL: Running for 1500000 steps
ETITLE: TS BOND ANGLE DIHED IMPRP ELECT VDW BOUNDARY MISC KINETIC TOTAL TEMP POTENTIAL TOTALAVG TEMPAVG PRESSURE GPRESSURE VOLUME PRESSAVG GPRESSAVG
ENERGY: 0 1.5185 9.7920 2.1569 0.0000 -10829.0627 1498.5061 0.0000 0.0000 1759.4317 -7557.6574 298.5622 -9317.0892 -7557.6574 298.5622 458.6981 548.3255 30192.2707 458.6981 548.3255
ENERGY: 300000 0.9819 9.3319 2.1116 0.0000 -10824.2486 1486.1255 0.0000 0.0000 1707.3022 -7618.3955 289.7163 -9325.6977 -7526.4159 299.3899 54.6832 72.3505 30642.4896 271.6231 327.7571
ENERGY: 600000 3.5492 6.6206 1.4315 0.0000 -10680.0107 1462.0974 0.0000 0.0000 1758.2990 -7448.0129 298.3700 -9206.3120 -7508.0854 299.6353 127.2161 106.4242 30973.6572 230.4674 270.2790
ENERGY: 900000 1.3247 5.9486 2.2333 0.0000 -10697.6847 1412.7859 0.0000 0.0000 1816.2114 -7459.1808 308.1973 -9275.3923 -7513.2761 300.5085 -42.3691 12.4788 30405.8527 121.1910 167.7412
ENERGY: 1200000 0.7985 5.9994 1.6082 0.0000 -10645.1996 1399.9567 0.0000 0.0000 1729.8605 -7506.9764 293.5442 -9236.8369 -7508.1574 300.5080 -220.2923 -213.6785 30604.7626 92.4850 137.5470
ENERGY: 1500000 1.1038 8.6341 1.4966 0.0000 -10675.2272 1381.8048 0.0000 0.0000 1779.8048 -7502.3831 302.0194 -9282.1879 -7514.6928 299.7145 -398.2107 -362.2131 30535.0352 -12.3843 36.7755
TCL: Running FEP window   9: Lambda1 0.5999999999999996 Lambda2 0.5499999999999996 [dLambda -0.050000000000000044]
TCL: Setting parameter firsttimestep to 0
TCL: Setting parameter alchLambda to 0.5999999999999996
Info: NONBONDED TABLE R-SQUARED SPACING: 0.0625
Info: NONBONDED TABLE SIZE: 705 POINTS
TCL: Setting parameter alchLambda2 to 0.5499999999999996
Info: NONBONDED TABLE R-SQUARED SPACING: 0.0625
Info: NONBONDED TABLE SIZE: 705 POINTS
TCL: Running for 1500000 steps
ETITLE: TS BOND ANGLE DIHED IMPRP ELECT VDW BOUNDARY MISC KINETIC TOTAL TEMP POTENTIAL TOTALAVG TEMPAVG PRESSURE GPRESSURE VOLUME PRESSAVG GPRESSAVG
ENERGY: 0 1.1038 8.6341 1.4966 0.0000 -10675.0655 1381.9683 0.0000 0.0000 1778.8838 -7502.9789 301.8631 -9281.8628 -7502.9789 301.8631 -451.4803 -367.7156 30535.0352 -451.4803 -367.7156
ENERGY: 300000 1.1267 7.8394 2.5879 0.0000 -10706.0800 1449.1644 0.0000 0.0000 1760.0764 -7485.2852 298.6716 -9245.3616 -7497.1715 298.6241 189.8704 199.3597 30453.7495 -107.0521 -20.4097
ENERGY: 600000 0.4424 6.4735 4.1369 0.0000 -10643.6739 1348.6245 0.0000 0.0000 1729.3112 -7554.6855 293.4510 -9283.9967 -7517.4869 298.8551 -755.8375 -766.9531 30677.4703 -396.9764 -331.5810
ENERGY: 900000 1.0855 4.9417 2.4225 0.0000 -10619.3197 1326.6916 0.0000 0.0000 1780.6403 -7503.5380 302.1612 -9284.1784 -7508.0273 299.6132 -953.4221 -876.6755 30756.0310 -481.2490 -419.3300
ENERGY: 1200000 1.7270 8.0113 2.6771 0.0000 -10890.9792 1524.0742 0.0000 0.0000 1753.0254 -7601.4641 297.4751 -9354.4895 -7524.8779 298.7574 603.4749 645.3719 30115.0824 -389.1772 -329.4709
ENERGY: 1500000 1.2788 6.2662 1.9184 0.0000 -10611.7562 1348.5668 0.0000 0.0000 1738.4399 -7515.2861 295.0001 -9253.7260 -7529.1200 298.4475 -846.4695 -828.2479 31122.3982 -320.5045 -259.5012
TCL: Running FEP window  10: Lambda1 0.5499999999999996 Lambda2 0.4999999999999996 [dLambda -0.04999999999999999]
TCL: Setting parameter firsttimestep to 0
TCL: Setting parameter alchLambda to 0.5499999999999996
Info: NONBONDED TABLE R-SQUARED SPACING: 0.0625
Info: NONBONDED TABLE SIZE: 705 POINTS
TCL: Setting parameter alchLambda2 to 0.4999999999999996
Info: NONBONDED TABLE R-SQUARED SPACING: 0.0625
Info: NONBONDED TABLE SIZE: 705 POINTS
TCL: Running for 1500000 steps
ETITLE: TS BOND ANGLE DIHED IMPRP ELECT VDW BOUNDARY MISC KINETIC TOTAL TEMP POTENTIAL TOTALAVG TEMPAVG PRESSURE GPRESSURE VOLUME PRESSAVG GPRESSAVG
ENERGY: 0 1.2788 6.2662 1.9184 0.0000 -10611.5689 1348.6715 0.0000 0.0000 1737.5511 -7515.8829 294.8493 -9253.4340 -7515.8829 294.8493 -915.1067 -831.8390 31122.3982 -915.1067 -831.8390
ENERGY: 300000 1.9058 6.7585 2.7096 0.0000 -10827.0654 1366.3718 0.0000 0.0000 1780.9085 -7668.4112 302.2067 -9449.3197 -7551.6844 301.3855 -905.3330 -821.4628 30015.3072 -494.6416 -415.2477
ENERGY: 600000 1.6053 9.6350 1.9206 0.0000 -10808.6291 1507.3692 0.0000 0.0000 1726.3152 -7561.7839 292.9426 -9288.0991 -7534.5292 298.0074 160.9501 296.0176 30709.3172 -259.3357 -191.3046
ENERGY: 900000 2.4929 4.4421 2.2298 0.0000 -10827.5026 1515.3307 0.0000 0.0000 1773.8942 -7529.1129 301.0164 -9303.0071 -7530.0849 297.3883 588.2854 663.6045 30183.5889 -16.3593 44.4595
ENERGY: 1200000 2.1516 5.4841 1.5574 0.0000 -10702.9140 1443.4164 0.0000 0.0000 1755.0487 -7495.2558 297.8185 -9250.3045 -7529.0176 297.7915 62.5570 100.7846 30205.3211 96.6914 157.8836
ENERGY: 1500000 1.3787 7.9004 1.9097 0.0000 -10682.8807 1413.8338 0.0000 0.0000 1789.8916 -7467.9665 303.7311 -9257.8581 -7529.3097 298.0607 80.0681 125.6717 30041.1568 92.3199 151.0035
TCL: Running FEP window  11: Lambda1 0.4999999999999996 Lambda2 0.4499999999999996 [dLambda -0.04999999999999999]
TCL: Setting parameter firsttimestep to 0
TCL: Setting parameter alchLambda to 0.4999999999999996
Info: NONBONDED TABLE R-SQUARED SPACING: 0.0625
Info: NONBONDED TABLE SIZE: 705 POINTS
TCL: Setting parameter alchLambda2 to 0.4499999999999996
Info: NONBONDED TABLE R-SQUARED SPACING: 0.0625
Info: NONBONDED TABLE SIZE: 705 POINTS
TCL: Running for 1500000 steps
ETITLE: TS BOND ANGLE DIHED IMPRP ELECT VDW BOUNDARY MISC KINETIC TOTAL TEMP POTENTIAL TOTALAVG TEMPAVG PRESSURE GPRESSURE VOLUME PRESSAVG GPRESSAVG
ENERGY: 0 1.3786 7.9004 1.9097 0.0000 -10682.9381 1414.1528 0.0000 0.0000 1789.0614 -7468.5352 303.5902 -9257.5966 -7468.5352 303.5902 33.4997 121.6872 30041.1568 33.4997 121.6872
ENERGY: 300000 0.4501 4.6681 2.2757 0.0000 -10707.4775 1419.9750 0.0000 0.0000 1798.0831 -7482.0255 305.1211 -9280.1086 -7494.9886 302.9625 -52.0832 -15.7898 30314.8707 -234.3171 -167.0081
ENERGY: 600000 0.4985 10.1286 2.7665 0.0000 -10750.1656 1446.4108 0.0000 0.0000 1799.1242 -7491.2369 305.2978 -9290.3611 -7512.2237 302.0744 -284.9590 -168.4475 30782.3997 -118.7503 -47.7492
ENERGY: 900000 0.9093 7.1643 1.5729 0.0000 -10801.0074 1462.8180 0.0000 0.0000 1846.8963 -7481.6465 313.4043 -9328.5428 -7503.3440 301.9654 -45.0483 13.3573 30553.4515 -122.3634 -53.8555
ENERGY: 1200000 0.4145 5.7592 2.8167 0.0000 -10717.8453 1423.9725 0.0000 0.0000 1775.7860 -7509.0964 301.3374 -9284.8824 -7504.3543 301.5807 -255.7015 -173.6343 30710.8258 -172.2851 -107.9128
ENERGY: 1500000 0.8639 6.2027 2.2309 0.0000 -10662.5940 1411.1949 0.0000 0.0000 1734.4777 -7507.6238 294.3277 -9242.1016 -7512.8295 300.8215 -169.4575 -114.5124 30549.4149 -282.8502 -211.9709
TCL: Running FEP window  12: Lambda1 0.4499999999999996 Lambda2 0.39999999999999963 [dLambda -0.04999999999999999]
TCL: Setting parameter firsttimestep to 0
TCL: Setting parameter alchLambda to 0.4499999999999996
Info: NONBONDED TABLE R-SQUARED SPACING: 0.0625
Info: NONBONDED TABLE SIZE: 705 POINTS
TCL: Setting parameter alchLambda2 to 0.39999999999999963
Info: NONBONDED TABLE R-SQUARED SPACING: 0.0625
Info: NONBONDED TABLE SIZE: 705 POINTS
TCL: Running for 1500000 steps
ETITLE: TS BOND ANGLE DIHED IMPRP ELECT VDW BOUNDARY MISC KINETIC TOTAL TEMP POTENTIAL TOTALAVG TEMPAVG PRESSURE GPRESSURE VOLUME PRESSAVG GPRESSAVG
ENERGY: 0 0.8639 6.2027 2.2309 0.0000 -10662.5927 1411.2502 0.0000 0.0000 1733.6086 -7508.4365 294.1802 -9242.0451 -7508.4365 294.1802 -189.0246 -121.7077 30549.4149 -189.0246 -121.7077
ENERGY: 300000 0.2933 5.6418 2.2808 0.0000 -10943.2487 1584.0165 0.0000 0.0000 1819.6606 -7531.3558 308.7826 -9351.0164 -7511.4667 301.4071 963.4315 992.5940 30363.8398 -68.2842 -21.2154
ENERGY: 600000 0.8130 7.3550 1.7480 0.0000 -10707.0558 1386.2769 0.0000 0.0000 1738.2092 -7572.6537 294.9609 -9310.8629 -7525.3931 299.2510 -764.4621 -714.2392 30963.2992 -283.0730 -224.6156
ENERGY: 900000 0.1049 4.7476 1.7678 0.0000 -10605.2854 1380.0329 0.0000 0.0000 1748.5026 -7470.1296 296.7076 -9218.6322 -7525.5985 298.3348 -297.6905 -230.3422 30416.3133 -180.8051 -125.1966
ENERGY: 1200000 0.2263 8.4486 2.5696 0.0000 -10729.6753 1479.3612 0.0000 0.0000 1750.4337 -7488.6359 297.0353 -9239.0696 -7513.8081 299.4155 560.3438 710.9645 30205.5775 -5.0170 59.0651
ENERGY: 1500000 1.7954 5.3314 2.0320 0.0000 -10690.4407 1488.7806 0.0000 0.0000 1843.6613 -7348.8401 312.8554 -9192.5014 -7491.9357 300.8944 658.3800 738.5912 30198.8890 -5.0732 57.9837
TCL: Running FEP window  13: Lambda1 0.39999999999999963 Lambda2 0.34999999999999964 [dLambda -0.04999999999999999]
TCL: Setting parameter firsttimestep to 0
TCL: Setting parameter alchLambda to 0.39999999999999963
Info: NONBONDED TABLE R-SQUARED SPACING: 0.0625
Info: NONBONDED TABLE SIZE: 705 POINTS
TCL: Setting parameter alchLambda2 to 0.34999999999999964
Info: NONBONDED TABLE R-SQUARED SPACING: 0.0625
Info: NONBONDED TABLE SIZE: 705 POINTS
TCL: Running for 1500000 steps
ETITLE: TS BOND ANGLE DIHED IMPRP ELECT VDW BOUNDARY MISC KINETIC TOTAL TEMP POTENTIAL TOTALAVG TEMPAVG PRESSURE GPRESSURE VOLUME PRESSAVG GPRESSAVG
ENERGY: 0 1.7954 5.3314 2.0320 0.0000 -10690.4402 1489.0395 0.0000 0.0000 1842.8025 -7349.4394 312.7096 -9192.2420 -7349.4394 312.7096 646.8391 734.5742 30198.8890 646.8391 734.5742
ENERGY: 300000 0.7898 6.8108 2.1010 0.0000 -10708.4720 1374.9334 0.0000 0.0000 1818.4411 -7505.3959 308.5757 -9323.8370 -7479.7892 303.5893 -439.7167 -445.9820 30367.0769 105.2823 185.8125
ENERGY: 600000 1.6904 8.0523 1.9025 0.0000 -10768.3424 1443.6433 0.0000 0.0000 1743.8584 -7569.1955 295.9196 -9313.0539 -7506.3240 301.4962 -156.2303 -69.6770 30573.6461 -31.4843 40.0164
ENERGY: 900000 0.2688 7.8919 3.5376 0.0000 -10773.8823 1475.5133 0.0000 0.0000 1760.2788 -7526.3919 298.7060 -9286.6707 -7514.7868 300.3667 6.7637 101.9219 30635.5443 43.7267 111.5211
ENERGY: 1200000 0.9723 6.0129 2.3326 0.0000 -10651.5428 1390.0802 0.0000 0.0000 1775.8754 -7476.2693 301.3526 -9252.1448 -7504.2087 301.4625 -405.5159 -350.1673 30657.3890 -21.5417 39.6454
ENERGY: 1500000 0.3127 11.4958 2.8078 0.0000 -10684.6529 1431.3931 0.0000 0.0000 1788.3227 -7450.3208 303.4648 -9238.6435 -7504.1299 301.6290 -34.3221 90.6216 30346.6696 67.1822 126.8247
TCL: Running FEP window  14: Lambda1 0.34999999999999964 Lambda2 0.29999999999999966 [dLambda -0.04999999999999999]
TCL: Setting parameter firsttimestep to 0
TCL: Setting parameter alchLambda to 0.34999999999999964
Info: NONBONDED TABLE R-SQUARED SPACING: 0.0625
Info: NONBONDED TABLE SIZE: 705 POINTS
TCL: Setting parameter alchLambda2 to 0.29999999999999966
Info: NONBONDED TABLE R-SQUARED SPACING: 0.0625
Info: NONBONDED TABLE SIZE: 705 POINTS
TCL: Running for 1500000 steps
ETITLE: TS BOND ANGLE DIHED IMPRP ELECT VDW BOUNDARY MISC KINETIC TOTAL TEMP POTENTIAL TOTALAVG TEMPAVG PRESSURE GPRESSURE VOLUME PRESSAVG GPRESSAVG
ENERGY: 0 0.3127 11.4958 2.8078 0.0000 -10684.6532 1431.1751 0.0000 0.0000 1787.4399 -7451.4218 303.3150 -9238.8617 -7451.4218 303.3150 -0.8407 82.4907 30346.6696 -0.8407 82.4907
ENERGY: 300000 0.8449 3.0089 1.6747 0.0000 -10714.3021 1418.7342 0.0000 0.0000 1799.5569 -7490.4826 305.3712 -9290.0395 -7477.8214 303.8993 -369.1201 -248.1905 30525.3272 -36.9407 49.2230
ENERGY: 600000 0.8742 4.4997 1.5940 0.0000 -10858.0245 1532.3371 0.0000 0.0000 1844.2311 -7474.4884 312.9521 -9318.7195 -7495.7471 303.5190 553.3962 653.3768 30396.7250 110.6728 189.0896
ENERGY: 900000 1.3478 4.1217 3.0714 0.0000 -10695.8907 1392.6692 0.0000 0.0000 1790.5773 -7504.1032 303.8474 -9294.6806 -7493.5148 303.4242 -385.3169 -358.4156 30373.5962 64.1379 129.9391
ENERGY: 1200000 3.1029 5.8056 2.6410 0.0000 -10817.4566 1491.9191 0.0000 0.0000 1801.6921 -7512.2960 305.7335 -9313.9881 -7497.8504 303.4264 339.2289 353.2808 30166.7263 -6.0731 53.8861
ENERGY: 1500000 1.4123 9.6581 3.8293 0.0000 -10809.7367 1479.7568 0.0000 0.0000 1750.3669 -7564.7134 297.0240 -9315.0803 -7502.3825 302.7999 241.9005 307.4055 30100.3265 -27.8744 30.3820
TCL: Running FEP window  15: Lambda1 0.29999999999999966 Lambda2 0.24999999999999967 [dLambda -0.04999999999999999]
TCL: Setting parameter firsttimestep to 0
TCL: Setting parameter alchLambda to 0.29999999999999966
Info: NONBONDED TABLE R-SQUARED SPACING: 0.0625
Info: NONBONDED TABLE SIZE: 705 POINTS
TCL: Setting parameter alchLambda2 to 0.24999999999999967
Info: NONBONDED TABLE R-SQUARED SPACING: 0.0625
Info: NONBONDED TABLE SIZE: 705 POINTS
TCL: Running for 1500000 steps
ETITLE: TS BOND ANGLE DIHED IMPRP ELECT VDW BOUNDARY MISC KINETIC TOTAL TEMP POTENTIAL TOTALAVG TEMPAVG PRESSURE GPRESSURE VOLUME PRESSAVG GPRESSAVG
ENERGY: 0 1.4123 9.6581 3.8293 0.0000 -10809.7384 1479.8187 0.0000 0.0000 1749.4817 -7565.5384 296.8738 -9315.0200 -7565.5384 296.8738 220.8659 302.7374 30100.3265 220.8659 302.7374
ENERGY: 300000 2.7510 5.5001 2.8938 0.0000 -10557.3482 1333.0264 0.0000 0.0000 1704.7723 -7508.4046 289.2869 -9213.1769 -7546.4079 297.4939 -800.2103 -742.8268 30349.1829 -19.8772 41.5594
ENERGY: 600000 2.1802 4.5095 2.7671 0.0000 -10874.1275 1524.3409 0.0000 0.0000 1748.8748 -7591.4549 296.7708 -9340.3298 -7536.7390 299.7454 552.5541 606.4002 30134.7540 90.7048 151.5775
ENERGY: 900000 0.9171 2.7928 2.3737 0.0000 -10536.7325 1324.3882 0.0000 0.0000 1812.8093 -7393.4515 307.6200 -9206.2608 -7511.9743 299.3319 -824.5141 -741.5566 30939.4056 -143.2428 -75.7102
ENERGY: 1200000 1.3881 3.7446 1.5130 0.0000 -10607.7627 1302.9040 0.0000 0.0000 1752.4235 -7545.7896 297.3730 -9298.2130 -7507.0578 300.0677 -1190.5261 -1160.9499 30571.8733 -323.6510 -259.7556
ENERGY: 1500000 0.6576 4.2715 2.1645 0.0000 -10747.4378 1392.2203 0.0000 0.0000 1815.5508 -7532.5729 308.0852 -9348.1237 -7507.9226 299.8154 -528.3780 -464.0009 30380.2831 -282.6570 -215.1515
TCL: Running FEP window  16: Lambda1 0.24999999999999967 Lambda2 0.19999999999999968 [dLambda -0.04999999999999999]
TCL: Setting parameter firsttimestep to 0
TCL: Setting parameter alchLambda to 0.24999999999999967
Info: NONBONDED TABLE R-SQUARED SPACING: 0.0625
Info: NONBONDED TABLE SIZE: 705 POINTS
TCL: Setting parameter alchLambda2 to 0.19999999999999968
Info: NONBONDED TABLE R-SQUARED SPACING: 0.0625
Info: NONBONDED TABLE SIZE: 705 POINTS
TCL: Running for 1500000 steps
ETITLE: TS BOND ANGLE DIHED IMPRP ELECT VDW BOUNDARY MISC KINETIC TOTAL TEMP POTENTIAL TOTALAVG TEMPAVG PRESSURE GPRESSURE VOLUME PRESSAVG GPRESSAVG
ENERGY: 0 0.6576 4.2715 2.1645 0.0000 -10747.4362 1391.5404 0.0000 0.0000 1814.6354 -7534.1667 307.9299 -9348.8021 -7534.1667 307.9299 -546.8102 -471.8923 30380.2831 -546.8102 -471.8923
ENERGY: 300000 1.7503 5.9232 2.7216 0.0000 -10774.2954 1470.4424 0.0000 0.0000 1764.4669 -7528.9911 299.4167 -9293.4580 -7524.5914 300.8569 415.4338 448.3563 29907.8395 -168.2293 -117.2270
ENERGY: 600000 1.6885 9.4824 1.8280 0.0000 -10667.2410 1407.9557 0.0000 0.0000 1790.1486 -7456.1378 303.7747 -9246.2865 -7510.0544 300.6671 -282.5365 -257.1452 30550.3020 -120.6421 -69.2340
ENERGY: 900000 0.5294 6.9613 2.5063 0.0000 -10591.2827 1330.6383 0.0000 0.0000 1754.3780 -7496.2694 297.7047 -9250.6474 -7519.1558 301.2209 -1179.1554 -1133.5159 31140.5917 -183.6513 -136.2128
ENERGY: 1200000 1.9414 4.6124 1.8147 0.0000 -10631.8572 1341.1715 0.0000 0.0000 1812.7991 -7469.5181 307.6183 -9282.3172 -7512.7186 301.3156 -574.2929 -558.9290 30298.2330 -146.8013 -105.6642
ENERGY: 1500000 1.9859 7.5436 1.5373 0.0000 -10595.2377 1347.4219 0.0000 0.0000 1761.2852 -7475.4638 298.8768 -9236.7490 -7505.3012 302.0414 -721.7968 -658.3808 30682.7209 -242.6172 -201.7356
TCL: Running FEP window  17: Lambda1 0.19999999999999968 Lambda2 0.1499999999999997 [dLambda -0.04999999999999999]
TCL: Setting parameter firsttimestep to 0
TCL: Setting parameter alchLambda to 0.19999999999999968
Info: NONBONDED TABLE R-SQUARED SPACING: 0.0625
Info: NONBONDED TABLE SIZE: 705 POINTS
TCL: Setting parameter alchLambda2 to 0.1499999999999997
Info: NONBONDED TABLE R-SQUARED SPACING: 0.0625
Info: NONBONDED TABLE SIZE: 705 POINTS
TCL: Running for 1500000 steps
ETITLE: TS BOND ANGLE DIHED IMPRP ELECT VDW BOUNDARY MISC KINETIC TOTAL TEMP POTENTIAL TOTALAVG TEMPAVG PRESSURE GPRESSURE VOLUME PRESSAVG GPRESSAVG
ENERGY: 0 1.9859 7.5436 1.5373 0.0000 -10595.2370 1347.2584 0.0000 0.0000 1760.4129 -7476.4989 298.7287 -9236.9118 -7476.4989 298.7287 -733.5496 -663.6552 30682.7209 -733.5496 -663.6552
ENERGY: 300000 0.8105 6.1768 5.2123 0.0000 -10814.0801 1484.0661 0.0000 0.0000 1803.3820 -7514.4323 306.0203 -9317.8143 -7526.8551 301.9237 524.7723 541.5458 29899.9993 122.8264 156.0475
ENERGY: 600000 0.7545 5.8226 1.8881 0.0000 -10791.4234 1499.0808 0.0000 0.0000 1786.1921 -7497.6853 303.1033 -9283.8774 -7507.4074 300.8067 386.2767 461.6345 30359.4694 156.7556 204.8041
ENERGY: 900000 3.1273 6.7350 1.5717 0.0000 -10662.0761 1449.1851 0.0000 0.0000 1775.5901 -7425.8670 301.3042 -9201.4571 -7502.0179 301.2544 -88.8511 -14.1240 30404.6540 112.2865 153.4859
ENERGY: 1200000 1.2711 7.6501 4.7249 0.0000 -10689.5525 1394.7821 0.0000 0.0000 1736.9808 -7544.1435 294.7525 -9281.1243 -7512.4303 300.0811 -528.9876 -456.8404 30528.7946 83.4274 131.6499
ENERGY: 1500000 1.1970 6.9760 3.4406 0.0000 -10693.8051 1448.9054 0.0000 0.0000 1780.5025 -7452.7835 302.1378 -9233.2860 -7505.4601 300.1791 -27.3742 53.7905 30587.0272 65.3067 110.5648
TCL: Running FEP window  18: Lambda1 0.1499999999999997 Lambda2 0.09999999999999969 [dLambda -0.05 ]
TCL: Setting parameter firsttimestep to 0
TCL: Setting parameter alchLambda to 0.1499999999999997
Info: NONBONDED TABLE R-SQUARED SPACING: 0.0625
Info: NONBONDED TABLE SIZE: 705 POINTS
TCL: Setting parameter alchLambda2 to 0.09999999999999969
Info: NONBONDED TABLE R-SQUARED SPACING: 0.0625
Info: NONBONDED TABLE SIZE: 705 POINTS
TCL: Running for 1500000 steps
ETITLE: TS BOND ANGLE DIHED IMPRP ELECT VDW BOUNDARY MISC KINETIC TOTAL TEMP POTENTIAL TOTALAVG TEMPAVG PRESSURE GPRESSURE VOLUME PRESSAVG GPRESSAVG
ENERGY: 0 1.1970 6.9760 3.4406 0.0000 -10693.8045 1448.5484 0.0000 0.0000 1779.5948 -7454.0477 301.9838 -9233.6425 -7454.0477 301.9838 -44.9576 50.2145 30587.0272 -44.9576 50.2145
ENERGY: 300000 0.4476 7.5003 1.7742 0.0000 -10785.0096 1498.1646 0.0000 0.0000 1784.6644 -7492.4585 302.8440 -9277.1228 -7511.2462 298.8742 459.5196 507.4856 30364.7530 4.5009 97.7449
ENERGY: 600000 0.1942 6.1460 3.0118 0.0000 -10751.8208 1493.5065 0.0000 0.0000 1781.8966 -7467.0659 302.3744 -9248.9625 -7509.2801 300.3012 713.3258 743.0950 30148.4709 170.4483 235.2010
ENERGY: 900000 0.6045 5.4211 2.5490 0.0000 -10699.6566 1469.8522 0.0000 0.0000 1762.2331 -7458.9967 299.0376 -9221.2298 -7492.4267 300.6502 135.5285 182.9568 30793.2594 186.8061 256.2315
ENERGY: 1200000 0.4252 7.8847 2.5426 0.0000 -10760.8599 1456.8517 0.0000 0.0000 1734.7027 -7558.4529 294.3659 -9293.1557 -7499.6266 300.9306 274.7759 321.4264 29850.7506 122.7224 195.7208
ENERGY: 1500000 0.7173 12.6653 2.0577 0.0000 -10648.9765 1406.4811 0.0000 0.0000 1793.2405 -7433.8145 304.2993 -9227.0551 -7486.2088 301.4350 52.8639 100.8153 30119.9460 209.3200 282.8713
TCL: Running FEP window  19: Lambda1 0.09999999999999969 Lambda2 0.049999999999999684 [dLambda -0.05 ]
TCL: Setting parameter firsttimestep to 0
TCL: Setting parameter alchLambda to 0.09999999999999969
Info: NONBONDED TABLE R-SQUARED SPACING: 0.0625
Info: NONBONDED TABLE SIZE: 705 POINTS
TCL: Setting parameter alchLambda2 to 0.049999999999999684
Info: NONBONDED TABLE R-SQUARED SPACING: 0.0625
Info: NONBONDED TABLE SIZE: 705 POINTS
TCL: Running for 1500000 steps
ETITLE: TS BOND ANGLE DIHED IMPRP ELECT VDW BOUNDARY MISC KINETIC TOTAL TEMP POTENTIAL TOTALAVG TEMPAVG PRESSURE GPRESSURE VOLUME PRESSAVG GPRESSAVG
ENERGY: 0 0.7173 12.6653 2.0577 0.0000 -10648.9780 1406.1754 0.0000 0.0000 1792.3748 -7434.9874 304.1524 -9227.3622 -7434.9874 304.1524 8.0646 96.6527 30119.9460 8.0646 96.6527
ENERGY: 300000 1.8255 4.7663 3.3959 0.0000 -10766.8379 1527.7266 0.0000 0.0000 1737.3650 -7491.7587 294.8177 -9229.1237 -7497.1788 295.9714 835.6450 921.4024 30251.0379 35.1235 135.3525
ENERGY: 600000 1.1232 4.7282 2.3525 0.0000 -10712.7719 1434.3848 0.0000 0.0000 1805.0701 -7465.1130 306.3067 -9270.1831 -7495.3908 299.7767 -266.7417 -180.3888 30900.8706 -26.1121 52.9665
ENERGY: 900000 2.3949 7.2939 2.5945 0.0000 -10631.2733 1371.2526 0.0000 0.0000 1792.2470 -7455.4904 304.1307 -9247.7374 -7502.6445 299.4831 -417.1864 -405.1992 30307.9320 -61.7061 8.2538
ENERGY: 1200000 0.5205 3.2006 1.7196 0.0000 -10754.0596 1469.6567 0.0000 0.0000 1815.5668 -7463.3953 308.0879 -9278.9621 -7504.4870 300.8074 76.4916 173.8227 30288.5086 -69.8956 -1.9262
ENERGY: 1500000 0.5532 6.6166 2.8013 0.0000 -10653.9503 1431.5079 0.0000 0.0000 1780.2175 -7432.2538 302.0894 -9212.4713 -7507.5287 300.7687 -193.4249 -117.6946 30876.9616 -9.5735 61.6800
TCL: Running FEP window  20: Lambda1 0.049999999999999684 Lambda2 0.0    [dLambda -0.049999999999999684]
TCL: Setting parameter firsttimestep to 0
TCL: Setting parameter alchLambda to 0.049999999999999684
Info: NONBONDED TABLE R-SQUARED SPACING: 0.0625
Info: NONBONDED TABLE SIZE: 705 POINTS
TCL: Setting parameter alchLambda2 to 0.0
Info: NONBONDED TABLE R-SQUARED SPACING: 0.0625
Info: NONBONDED TABLE SIZE: 705 POINTS
TCL: Running for 1500000 steps
ETITLE: TS BOND ANGLE DIHED IMPRP ELECT VDW BOUNDARY MISC KINETIC TOTAL TEMP POTENTIAL TOTALAVG TEMPAVG PRESSURE GPRESSURE VOLUME PRESSAVG GPRESSAVG
ENERGY: 0 0.5532 6.6166 2.8013 0.0000 -10653.9503 1431.6231 0.0000 0.0000 1779.3443 -7433.0117 301.9413 -9212.3561 -7433.0117 301.9413 -206.1473 -120.9712 30876.9616 -206.1473 -120.9712
ENERGY: 300000 2.6772 7.5294 3.2405 0.0000 -10774.5590 1469.7667 0.0000 0.0000 1760.3739 -7530.9712 298.7221 -9291.3451 -7474.7437 301.9600 -105.6856 -25.9981 30469.0984 124.6510 196.6984
ENERGY: 600000 0.9648 5.8844 4.3391 0.0000 -10691.2991 1422.1425 0.0000 0.0000 1747.7503 -7510.2180 296.5800 -9257.9683 -7493.8654 300.8022 -344.7590 -313.2523 30852.8822 -90.7847 -30.1670
ENERGY: 900000 2.9010 7.5927 4.1546 0.0000 -10804.7007 1461.9451 0.0000 0.0000 1800.3890 -7527.7183 305.5124 -9328.1073 -7503.2451 301.4474 -27.3054 40.9909 30190.1892 -58.2701 6.4277
ENERGY: 1200000 0.7349 7.4784 2.6988 0.0000 -10679.5640 1483.9960 0.0000 0.0000 1741.4356 -7443.2203 295.5084 -9184.6559 -7509.6398 299.3415 410.7623 503.7403 30526.0751 72.4555 137.4640
ENERGY: 1500000 0.9149 6.8527 2.2217 0.0000 -10688.1162 1373.8462 0.0000 0.0000 1789.4648 -7514.8159 303.6586 -9304.2807 -7502.4429 300.0960 -663.8995 -574.9403 30435.8911 73.4818 138.2287
TCL: Exiting due to exit command.
