Info: SIMULATION PARAMETERS:
Info: TIMESTEP               2
Info: NUMBER OF STEPS        0
Info: STEPS PER CYCLE        10
Info: PERIODIC CELL BASIS 1  31.6871 0 0
Info: PERIODIC CELL BASIS 2  0 30.1514 0
Info: PERIODIC CELL BASIS 3  0 0 31.8579
Info: PERIODIC CELL CENTER   0 0 0
Info: WRAPPING WATERS AROUND PERIODIC BOUNDARIES ON OUTPUT.
Info: WRAPPING ALL CLUSTERS AROUND PERIODIC BOUNDARIES ON OUTPUT.
Info: FIRST LDB TIMESTEP     50
Info: LAST LDB TIMESTEP     -1
Info: HOM BACKGROUND SCALING 1
Info: PME BACKGROUND SCALING 1
Info: MIN ATOMS PER PATCH    40
Info: EMPTY PATCH LOAD       40 ATOMS
Info: VELOCITY FILE          mobley_7708038_equil.vel
Info: CENTER OF MASS MOVING INITIALLY? NO
Info: DIELECTRIC             1
Info: EXCLUDE                SCALED ONE-FOUR
Info: 1-4 ELECTROSTATICS SCALED BY 0.833333
Info: MODIFIED 1-4 VDW PARAMETERS WILL BE USED
Info: DCD FILENAME           mobley_7708038_prod.dcd
Info: DCD FREQUENCY          100000
Info: DCD FIRST STEP         100000
Info: DCD FILE WILL CONTAIN UNIT CELL DATA
Info: XST FILENAME           mobley_7708038_prod.xst
Info: XST FREQUENCY          100000
Info: NO VELOCITY DCD OUTPUT
Info: NO FORCE DCD OUTPUT
Info: OUTPUT FILENAME        mobley_7708038_prod
Info: BINARY OUTPUT FILES WILL BE USED
Info: RESTART FILENAME       mobley_7708038_prod.restart
Info: RESTART FREQUENCY      100000
Info: BINARY RESTART FILES WILL BE USED
Info: CUTOFF                 9
Info: PAIRLIST DISTANCE      11
Info: PAIRLIST SHRINK RATE   0.01
Info: PAIRLIST GROW RATE     0.01
Info: PAIRLIST TRIGGER       0.3
Info: PAIRLISTS PER CYCLE    2
Info: PAIRLISTS ENABLED
Info: MARGIN                 2
Info: HYDROGEN GROUP CUTOFF  2.5
Info: PATCH DIMENSION        15.5
Info: ENERGY OUTPUT STEPS    100000
Info: ENERGY EVALUATION STEPS    100000
Info: OUTPUT ENERGY PRECISION 4
Info: CROSSTERM ENERGY INCLUDED IN DIHEDRAL
Info: TIMING OUTPUT STEPS    1000000
Info: PRESSURE OUTPUT STEPS  100000
Info: ALCHEMICAL FEP ON
Info: FEP CURRENT LAMBDA VALUE     1
Info: FEP COMPARISON LAMBDA VALUE  0.95
Info: FEP INTRA-ALCHEMICAL NON-BONDED INTERACTIONS WILL BE RETAINED
Info: FEP INTRA-ALCHEMICAL BONDED INTERACTIONS WILL BE RETAINED
Info: FEP VDW SHIFTING COEFFICIENT 5
Info: FEP ELEC. ACTIVE FOR ANNIHILATED PARTICLES BETWEEN LAMBDA = 0 AND LAMBDA = 0.5
Info: FEP ELEC. ACTIVE FOR EXNIHILATED PARTICLES BETWEEN LAMBDA = 0.5 AND LAMBDA = 1
Info: FEP VDW ACTIVE FOR ANNIHILATED PARTICLES BETWEEN LAMBDA = 0 AND LAMBDA = 1
Info: FEP VDW ACTIVE FOR EXNIHILATED PARTICLES BETWEEN LAMBDA = 0 AND LAMBDA = 1
Info: FEP BOND ACTIVE FOR ANNIHILATED PARTICLES BETWEEN LAMBDA = 1 AND LAMBDA = 1
Info: FEP BOND ACTIVE FOR EXNIHILATED PARTICLES BETWEEN LAMBDA = 0 AND LAMBDA = 0
Info: LANGEVIN DYNAMICS ACTIVE
Info: LANGEVIN TEMPERATURE   300
Info: LANGEVIN USING BBK INTEGRATOR
Info: LANGEVIN DAMPING COEFFICIENT IS 1 INVERSE PS
Info: LANGEVIN DYNAMICS APPLIED TO HYDROGENS
Info: LANGEVIN PISTON PRESSURE CONTROL ACTIVE
Info:        TARGET PRESSURE IS 1.01325 BAR
Info:     OSCILLATION PERIOD IS 50 FS
Info:             DECAY TIME IS 25 FS
Info:     PISTON TEMPERATURE IS 300 K
Info:       PRESSURE CONTROL IS GROUP-BASED
Info:    INITIAL STRAIN RATE IS -8.47495e-05 -8.47495e-05 -8.47495e-05
Info:       CELL FLUCTUATION IS ISOTROPIC
Info: PARTICLE MESH EWALD (PME) ACTIVE
Info: PME TOLERANCE               1e-06
Info: PME EWALD COEFFICIENT       0.348832
Info: PME INTERPOLATION ORDER     4
Info: PME GRID DIMENSIONS         32 32 32
Info: PME MAXIMUM GRID SPACING    1
Info: PME CALCULATION WILL BE PERFORMED ON GPU
Info: FULL ELECTROSTATIC EVALUATION FREQUENCY      2
Info: USING VERLET I (r-RESPA) MTS SCHEME.
Info: C1 SPLITTING OF LONG RANGE ELECTROSTATICS
Info: PLACING ATOMS IN PATCHES BY HYDROGEN GROUPS
Info: RIGID BONDS TO HYDROGEN : ALL
Info:         ERROR TOLERANCE : 1e-08
Info:          MAX ITERATIONS : 100
Info: RIGID WATER USING SETTLE ALGORITHM
Info: RANDOM NUMBER SEED     1743683342
Info: USE HYDROGEN BONDS?    NO
Info: Using AMBER format force field!
Info: AMBER PARM FILE        mobley_7708038.prmtop
Info: COORDINATE PDB         mobley_7708038.pdb
Info: Exclusions will be read from PARM file!
Info: SCNB (VDW SCALING)     2
Info: USING ARITHMETIC MEAN TO COMBINE L-J SIGMA PARAMETERS
Info: BINARY COORDINATES     mobley_7708038_equil.coor
Info: SUMMARY OF PARAMETERS:
Info: 6 BONDS
Info: 7 ANGLES
Info:   7 HARMONIC
Info:   0 COSINE-BASED
Info: 5 DIHEDRAL
Info: 0 IMPROPER
Info: 0 CROSSTERM
Info: 0 VDW
Info: 21 VDW_PAIRS
Info: 0 NBTHOLE_PAIRS
Info: To read alchdata from file: mobley_7708038.pdb
Info: To read alchflag data from column: 5
Info: STRUCTURE SUMMARY:
Info: 2951 ATOMS
Info: 2950 BONDS
Info: 18 ANGLES
Info: 20 DIHEDRALS
Info: 0 IMPROPERS
Info: 0 CROSSTERMS
Info: 2986 EXCLUSIONS
Info: 2947 RIGID BONDS
Info: ALCH: 0 ATOMS TO DISAPPEAR IN FINAL STATE
Info: ALCH: 11 ATOMS TO APPEAR IN FINAL STATE
Info: 5906 DEGREES OF FREEDOM
Info: 984 HYDROGEN GROUPS
Info: 4 ATOMS IN LARGEST HYDROGEN GROUP
Info: 984 MIGRATION GROUPS
Info: 4 ATOMS IN LARGEST MIGRATION GROUP
Info: TOTAL MASS = 17778.7 amu
Info: TOTAL CHARGE = 0.000100004 e
Info: MASS DENSITY = 0.969955 g/cm^3
Info: ATOM DENSITY = 0.0969533 atoms/A^3
Info: ADDED 0 IMPLICIT EXCLUSIONS
Info: NONBONDED TABLE R-SQUARED SPACING: 0.0625
Info: NONBONDED TABLE SIZE: 705 POINTS
Info: REMOVING COM VELOCITY -0.141567 0.0969369 0.0341575
Info: Use 3D box decompostion in PME FFT.
Info: Updated CUDA force table with 4096 elements.
Info: Updated CUDA LJ table with 6 x 6 elements.
Info: Found 14 unique exclusion lists needing 24 bytes
TCL: Running for 1500000 steps
ETITLE: TS BOND ANGLE DIHED IMPRP ELECT VDW BOUNDARY MISC KINETIC TOTAL TEMP POTENTIAL TOTALAVG TEMPAVG PRESSURE GPRESSURE VOLUME PRESSAVG GPRESSAVG
ENERGY: 0 2.1412 5.8927 2.8494 0.0000 -10766.0697 1483.0376 0.0000 0.0000 1805.9488 -7466.1999 307.7531 -9272.1488 -7466.1999 307.7531 306.6378 379.2328 30437.3497 306.6378 379.2328
ENERGY: 300000 2.4147 3.5511 1.2838 0.0000 -10726.4626 1443.6502 0.0000 0.0000 1749.6646 -7525.8982 298.1616 -9275.5628 -7519.7032 300.6980 -140.6468 -114.0472 30476.2666 -116.4517 -43.3898
ENERGY: 600000 0.3619 5.7330 2.0149 0.0000 -10687.9104 1388.1895 0.0000 0.0000 1730.5605 -7561.0506 294.9061 -9291.6111 -7529.1782 300.3216 -513.7963 -492.7140 30483.7750 -140.0612 -70.8910
ENERGY: 900000 1.2112 5.6974 1.5860 0.0000 -10738.6584 1428.7628 0.0000 0.0000 1730.5581 -7570.8430 294.9057 -9301.4011 -7516.0261 299.0918 -335.0187 -214.0710 30244.8981 -99.7322 -15.8538
ENERGY: 1200000 1.6062 5.1320 0.9063 0.0000 -10719.4058 1440.4233 0.0000 0.0000 1820.2514 -7451.0866 310.1904 -9271.3380 -7498.9044 301.0635 252.0715 314.0091 30048.7783 -143.8759 -61.9209
ENERGY: 1500000 0.4303 3.6270 1.2845 0.0000 -10684.6064 1437.0104 0.0000 0.0000 1763.1319 -7479.1223 300.4566 -9242.2542 -7493.5580 301.5938 228.6318 217.4190 30333.4508 -150.0992 -79.6174
TCL: Running FEP window   2: Lambda1 0.95   Lambda2 0.8999999999999999 [dLambda -0.050000000000000044]
TCL: Setting parameter firsttimestep to 0
TCL: Setting parameter alchLambda to 0.95
Info: NONBONDED TABLE R-SQUARED SPACING: 0.0625
Info: NONBONDED TABLE SIZE: 705 POINTS
TCL: Setting parameter alchLambda2 to 0.8999999999999999
Info: NONBONDED TABLE R-SQUARED SPACING: 0.0625
Info: NONBONDED TABLE SIZE: 705 POINTS
TCL: Running for 1500000 steps
ETITLE: TS BOND ANGLE DIHED IMPRP ELECT VDW BOUNDARY MISC KINETIC TOTAL TEMP POTENTIAL TOTALAVG TEMPAVG PRESSURE GPRESSURE VOLUME PRESSAVG GPRESSAVG
ENERGY: 0 0.4303 3.6270 1.2845 0.0000 -10684.4162 1436.5724 0.0000 0.0000 1762.2198 -7480.2822 300.3012 -9242.5020 -7480.2822 300.3012 110.3872 201.4465 30333.4508 110.3872 201.4465
ENERGY: 300000 0.5984 5.4392 2.4263 0.0000 -10560.5280 1347.8877 0.0000 0.0000 1740.7825 -7463.3940 296.6480 -9204.1765 -7482.1327 300.3569 -762.5239 -667.4682 30622.5300 -212.8851 -156.2359
ENERGY: 600000 1.4807 5.2899 1.5778 0.0000 -10562.8126 1396.5082 0.0000 0.0000 1798.2175 -7359.7384 306.4356 -9157.9559 -7462.2884 301.8493 -282.2354 -269.5354 31116.8469 -217.1676 -160.8609
ENERGY: 900000 0.3299 4.3642 0.9988 0.0000 -10772.8918 1490.1431 0.0000 0.0000 1736.0895 -7540.9663 295.8483 -9277.0558 -7479.6908 300.9289 425.7246 548.1299 30276.3170 -75.0262 -8.3905
ENERGY: 1200000 0.4304 7.7565 0.9796 0.0000 -10771.0741 1440.8683 0.0000 0.0000 1741.9897 -7579.0497 296.8537 -9321.0394 -7492.8180 300.7464 -250.7264 -124.3160 30499.5340 -37.8978 32.9595
ENERGY: 1500000 0.0769 3.7594 1.6330 0.0000 -10560.1978 1343.5540 0.0000 0.0000 1686.7995 -7524.3749 287.4487 -9211.1744 -7497.8896 299.0412 -575.4979 -544.4190 30313.0826 -58.9339 6.3635
TCL: Running FEP window   3: Lambda1 0.8999999999999999 Lambda2 0.8499999999999999 [dLambda -0.050000000000000044]
TCL: Setting parameter firsttimestep to 0
TCL: Setting parameter alchLambda to 0.8999999999999999
Info: NONBONDED TABLE R-SQUARED SPACING: 0.0625
Info: NONBONDED TABLE SIZE: 705 POINTS
TCL: Setting parameter alchLambda2 to 0.8499999999999999
Info: NONBONDED TABLE R-SQUARED SPACING: 0.0625
Info: NONBONDED TABLE SIZE: 705 POINTS
TCL: Running for 1500000 steps
ETITLE: TS BOND ANGLE DIHED IMPRP ELECT VDW BOUNDARY MISC KINETIC TOTAL TEMP POTENTIAL TOTALAVG TEMPAVG PRESSURE GPRESSURE VOLUME PRESSAVG GPRESSAVG
ENERGY: 0 0.0769 3.7594 1.6330 0.0000 -10559.9627 1343.9030 0.0000 0.0000 1685.8789 -7524.7113 287.2919 -9210.5903 -7524.7113 287.2919 -636.2001 -548.8720 30313.0826 -636.2001 -548.8720
ENERGY: 300000 0.7458 2.3208 1.7337 0.0000 -10611.7009 1344.0296 0.0000 0.0000 1752.6821 -7510.1889 298.6758 -9262.8711 -7500.2925 294.8355 -843.4991 -697.5258 30418.2493 -465.3649 -389.7560
ENERGY: 600000 0.2902 6.1919 1.9345 0.0000 -10694.6993 1419.0458 0.0000 0.0000 1857.1270 -7410.1099 316.4744 -9267.2369 -7472.8317 300.4902 134.5009 159.0330 30084.4865 -264.2345 -223.5002
ENERGY: 900000 0.7192 4.7052 0.9718 0.0000 -10678.7107 1433.0941 0.0000 0.0000 1803.7987 -7435.4216 307.3867 -9239.2203 -7471.3817 300.7579 -14.4296 38.4658 30401.6400 -139.8473 -104.9197
ENERGY: 1200000 1.7186 2.8265 0.9994 0.0000 -10830.0155 1490.2251 0.0000 0.0000 1761.6182 -7572.6278 300.1986 -9334.2460 -7478.1071 300.4539 281.2331 315.9168 30277.2609 -59.3026 -28.4677
ENERGY: 1500000 2.0780 5.7654 2.3301 0.0000 -10789.5398 1453.9947 0.0000 0.0000 1789.6473 -7535.7243 304.9751 -9325.3717 -7481.3702 300.7709 -228.5081 -34.5952 30207.3029 -85.7233 -37.3698
TCL: Running FEP window   4: Lambda1 0.8499999999999999 Lambda2 0.7999999999999998 [dLambda -0.050000000000000044]
TCL: Setting parameter firsttimestep to 0
TCL: Setting parameter alchLambda to 0.8499999999999999
Info: NONBONDED TABLE R-SQUARED SPACING: 0.0625
Info: NONBONDED TABLE SIZE: 705 POINTS
TCL: Setting parameter alchLambda2 to 0.7999999999999998
Info: NONBONDED TABLE R-SQUARED SPACING: 0.0625
Info: NONBONDED TABLE SIZE: 705 POINTS
TCL: Running for 1500000 steps
ETITLE: TS BOND ANGLE DIHED IMPRP ELECT VDW BOUNDARY MISC KINETIC TOTAL TEMP POTENTIAL TOTALAVG TEMPAVG PRESSURE GPRESSURE VOLUME PRESSAVG GPRESSAVG
ENERGY: 0 2.0780 5.7654 2.3301 0.0000 -10789.1796 1453.9331 0.0000 0.0000 1788.7670 -7536.3060 304.8251 -9325.0731 -7536.3060 304.8251 -130.8881 -44.5495 30207.3029 -130.8881 -44.5495
ENERGY: 300000 1.3682 3.1197 1.9633 0.0000 -10690.3495 1394.6585 0.0000 0.0000 1782.6769 -7506.5630 303.7873 -9289.2398 -7544.9365 297.7682 -309.9438 -284.6616 30136.7816 -197.4277 -127.0182
ENERGY: 600000 0.5519 7.2061 2.3746 0.0000 -10688.7007 1426.9583 0.0000 0.0000 1765.0038 -7486.6059 300.7756 -9251.6098 -7532.5495 297.3326 47.0010 105.9813 30117.7631 -11.5209 52.2640
ENERGY: 900000 0.7989 6.5058 1.2117 0.0000 -10548.2684 1371.9627 0.0000 0.0000 1763.4839 -7404.3054 300.5166 -9167.7894 -7499.2054 298.5257 -425.3157 -329.4546 30881.2789 -51.7787 14.1738
ENERGY: 1200000 0.7456 2.9417 2.6284 0.0000 -10749.9874 1462.5952 0.0000 0.0000 1770.0583 -7511.0182 301.6369 -9281.0764 -7488.0792 299.5259 60.8730 115.7992 30393.3482 -48.1957 17.2579
ENERGY: 1500000 0.9900 5.7495 1.0221 0.0000 -10716.9334 1483.8013 0.0000 0.0000 1768.1930 -7457.1773 301.3191 -9225.3703 -7483.1199 300.0662 394.4312 430.4475 30357.6465 -15.1166 50.7573
TCL: Running FEP window   5: Lambda1 0.7999999999999998 Lambda2 0.7499999999999998 [dLambda -0.050000000000000044]
TCL: Setting parameter firsttimestep to 0
TCL: Setting parameter alchLambda to 0.7999999999999998
Info: NONBONDED TABLE R-SQUARED SPACING: 0.0625
Info: NONBONDED TABLE SIZE: 705 POINTS
TCL: Setting parameter alchLambda2 to 0.7499999999999998
Info: NONBONDED TABLE R-SQUARED SPACING: 0.0625
Info: NONBONDED TABLE SIZE: 705 POINTS
TCL: Running for 1500000 steps
ETITLE: TS BOND ANGLE DIHED IMPRP ELECT VDW BOUNDARY MISC KINETIC TOTAL TEMP POTENTIAL TOTALAVG TEMPAVG PRESSURE GPRESSURE VOLUME PRESSAVG GPRESSAVG
ENERGY: 0 0.9900 5.7495 1.0221 0.0000 -10716.4214 1484.1440 0.0000 0.0000 1767.2840 -7457.2316 301.1642 -9224.5156 -7457.2316 301.1642 345.4382 428.6505 30357.6465 345.4382 428.6505
ENERGY: 300000 2.3464 5.5562 2.3861 0.0000 -10916.4626 1601.5188 0.0000 0.0000 1730.6386 -7574.0165 294.9194 -9304.6551 -7482.2482 299.6713 1173.0726 1253.9896 29939.7629 276.5437 328.3173
ENERGY: 600000 0.4717 4.6169 1.3075 0.0000 -10560.1970 1361.1835 0.0000 0.0000 1779.6020 -7413.0154 303.2633 -9192.6173 -7479.4642 301.1341 -464.9577 -355.7011 30687.0764 20.1456 74.8683
ENERGY: 900000 3.3908 3.1377 2.0880 0.0000 -10497.2993 1379.7841 0.0000 0.0000 1744.6178 -7364.2810 297.3016 -9108.8988 -7466.7815 300.1692 10.0470 42.0375 30367.5902 19.2286 67.9053
ENERGY: 1200000 0.6758 1.5504 1.2974 0.0000 -10692.2792 1344.8837 0.0000 0.0000 1735.6265 -7608.2455 295.7694 -9343.8720 -7475.4863 299.4158 -761.9265 -747.6006 30280.7969 -38.3829 14.2665
ENERGY: 1500000 1.4877 4.8629 2.0712 0.0000 -10723.3969 1432.3604 0.0000 0.0000 1758.3637 -7524.2510 299.6441 -9282.6147 -7489.4924 299.2572 -43.8152 -1.6793 30202.6674 -24.0905 29.1621
TCL: Running FEP window   6: Lambda1 0.7499999999999998 Lambda2 0.6999999999999997 [dLambda -0.050000000000000044]
TCL: Setting parameter firsttimestep to 0
TCL: Setting parameter alchLambda to 0.7499999999999998
Info: NONBONDED TABLE R-SQUARED SPACING: 0.0625
Info: NONBONDED TABLE SIZE: 705 POINTS
TCL: Setting parameter alchLambda2 to 0.6999999999999997
Info: NONBONDED TABLE R-SQUARED SPACING: 0.0625
Info: NONBONDED TABLE SIZE: 705 POINTS
TCL: Running for 1500000 steps
ETITLE: TS BOND ANGLE DIHED IMPRP ELECT VDW BOUNDARY MISC KINETIC TOTAL TEMP POTENTIAL TOTALAVG TEMPAVG PRESSURE GPRESSURE VOLUME PRESSAVG GPRESSAVG
ENERGY: 0 1.4877 4.8629 2.0712 0.0000 -10723.2080 1432.8100 0.0000 0.0000 1757.4558 -7524.5205 299.4893 -9281.9763 -7524.5205 299.4893 -93.6974 -0.7495 30202.6674 -93.6974 -0.7495
ENERGY: 300000 0.1236 4.2241 0.8700 0.0000 -10624.5979 1424.7742 0.0000 0.0000 1762.0918 -7432.5141 300.2794 -9194.6059 -7525.6693 298.2331 204.3938 269.9924 30167.6170 173.8726 242.2950
ENERGY: 600000 0.3904 5.1963 1.0661 0.0000 -10658.0750 1438.0277 0.0000 0.0000 1723.6587 -7489.7359 293.7299 -9213.3946 -7515.7504 297.5451 -53.0149 49.0737 30636.3955 -53.4565 13.6682
ENERGY: 900000 0.8614 3.4172 0.9727 0.0000 -10570.9635 1373.2530 0.0000 0.0000 1773.0089 -7419.4504 302.1397 -9192.4593 -7504.1904 300.0414 -249.3254 -190.5030 30384.0185 15.5790 83.2257
ENERGY: 1200000 0.7362 6.3385 1.6157 0.0000 -10694.8657 1458.1603 0.0000 0.0000 1783.2372 -7444.7778 303.8828 -9228.0150 -7505.0527 299.3445 45.3988 130.9643 30699.6542 29.0734 95.7273
ENERGY: 1500000 0.2853 5.6938 0.9146 0.0000 -10682.5619 1438.4194 0.0000 0.0000 1862.7313 -7374.5175 317.4294 -9237.2488 -7493.2576 300.3838 13.9008 41.0569 30623.2563 -17.0767 53.9006
TCL: Running FEP window   7: Lambda1 0.6999999999999997 Lambda2 0.6499999999999997 [dLambda -0.050000000000000044]
TCL: Setting parameter firsttimestep to 0
TCL: Setting parameter alchLambda to 0.6999999999999997
Info: NONBONDED TABLE R-SQUARED SPACING: 0.0625
Info: NONBONDED TABLE SIZE: 705 POINTS
TCL: Setting parameter alchLambda2 to 0.6499999999999997
Info: NONBONDED TABLE R-SQUARED SPACING: 0.0625
Info: NONBONDED TABLE SIZE: 705 POINTS
TCL: Running for 1500000 steps
ETITLE: TS BOND ANGLE DIHED IMPRP ELECT VDW BOUNDARY MISC KINETIC TOTAL TEMP POTENTIAL TOTALAVG TEMPAVG PRESSURE GPRESSURE VOLUME PRESSAVG GPRESSAVG
ENERGY: 0 0.2853 5.6938 0.9146 0.0000 -10682.6072 1438.9435 0.0000 0.0000 1861.8500 -7374.9199 317.2792 -9236.7699 -7374.9199 317.2792 -36.9955 41.4165 30623.2563 -36.9955 41.4165
ENERGY: 300000 0.2840 3.8060 1.0438 0.0000 -10714.2775 1463.8848 0.0000 0.0000 1756.2432 -7489.0158 299.2827 -9245.2590 -7436.0502 304.7340 88.1911 143.7382 30430.1945 -81.5677 -12.3739
ENERGY: 600000 1.2410 1.5865 1.7204 0.0000 -10706.4744 1463.6994 0.0000 0.0000 1750.6137 -7487.6134 298.3234 -9238.2271 -7469.3492 303.4780 87.1624 125.5556 30541.0240 47.0335 107.2067
ENERGY: 900000 2.5390 6.4556 1.2247 0.0000 -10696.4082 1441.0333 0.0000 0.0000 1784.6529 -7460.5028 304.1240 -9245.1557 -7476.2851 302.8522 -276.2872 -185.7964 30650.2043 11.5869 71.1215
ENERGY: 1200000 0.1285 4.2812 2.4638 0.0000 -10625.9665 1390.9601 0.0000 0.0000 1733.1728 -7494.9602 295.3512 -9228.1330 -7480.8549 302.1388 -307.1249 -236.0877 30613.6633 -122.2051 -65.8877
ENERGY: 1500000 0.2840 2.8477 1.7808 0.0000 -10673.3295 1395.6270 0.0000 0.0000 1786.5550 -7486.2350 304.4481 -9272.7900 -7484.4638 301.4387 -657.2271 -537.4529 30482.7998 -202.5719 -141.7998
TCL: Running FEP window   8: Lambda1 0.6499999999999997 Lambda2 0.5999999999999996 [dLambda -0.050000000000000044]
TCL: Setting parameter firsttimestep to 0
TCL: Setting parameter alchLambda to 0.6499999999999997
Info: NONBONDED TABLE R-SQUARED SPACING: 0.0625
Info: NONBONDED TABLE SIZE: 705 POINTS
TCL: Setting parameter alchLambda2 to 0.5999999999999996
Info: NONBONDED TABLE R-SQUARED SPACING: 0.0625
Info: NONBONDED TABLE SIZE: 705 POINTS
TCL: Running for 1500000 steps
ETITLE: TS BOND ANGLE DIHED IMPRP ELECT VDW BOUNDARY MISC KINETIC TOTAL TEMP POTENTIAL TOTALAVG TEMPAVG PRESSURE GPRESSURE VOLUME PRESSAVG GPRESSAVG
ENERGY: 0 0.2840 2.8477 1.7808 0.0000 -10673.2298 1395.1260 0.0000 0.0000 1785.6646 -7487.5267 304.2964 -9273.1913 -7487.5267 304.2964 -638.8572 -551.4215 30482.7998 -638.8572 -551.4215
ENERGY: 300000 1.2173 3.7436 1.0933 0.0000 -10589.3738 1375.4347 0.0000 0.0000 1780.6574 -7427.2274 303.4431 -9207.8848 -7475.8943 298.8524 -450.2924 -365.3794 30622.9396 -504.2718 -436.5214
ENERGY: 600000 1.7181 3.8871 1.2323 0.0000 -10595.6266 1428.3174 0.0000 0.0000 1808.4394 -7352.0324 308.1775 -9160.4718 -7464.3064 300.4795 30.0563 73.6845 30756.3115 -444.3916 -373.4204
ENERGY: 900000 0.5343 4.2076 1.4326 0.0000 -10644.2487 1415.6274 0.0000 0.0000 1735.1960 -7487.2508 295.6960 -9222.4468 -7478.6221 298.3478 -68.8630 -18.7164 30288.1901 -243.6362 -174.7292
ENERGY: 1200000 0.4011 6.6807 1.3276 0.0000 -10758.8632 1515.8068 0.0000 0.0000 1762.1019 -7472.5450 300.2811 -9234.6469 -7479.0283 298.5051 537.7722 567.9494 30539.2403 -181.9894 -118.6526
ENERGY: 1500000 0.3078 2.9305 1.0450 0.0000 -10740.0885 1474.4162 0.0000 0.0000 1813.9153 -7447.4737 309.1106 -9261.3890 -7473.4003 299.5295 682.4957 729.3942 29926.3737 -63.9760 2.3911
TCL: Running FEP window   9: Lambda1 0.5999999999999996 Lambda2 0.5499999999999996 [dLambda -0.050000000000000044]
TCL: Setting parameter firsttimestep to 0
TCL: Setting parameter alchLambda to 0.5999999999999996
Info: NONBONDED TABLE R-SQUARED SPACING: 0.0625
Info: NONBONDED TABLE SIZE: 705 POINTS
TCL: Setting parameter alchLambda2 to 0.5499999999999996
Info: NONBONDED TABLE R-SQUARED SPACING: 0.0625
Info: NONBONDED TABLE SIZE: 705 POINTS
TCL: Running for 1500000 steps
ETITLE: TS BOND ANGLE DIHED IMPRP ELECT VDW BOUNDARY MISC KINETIC TOTAL TEMP POTENTIAL TOTALAVG TEMPAVG PRESSURE GPRESSURE VOLUME PRESSAVG GPRESSAVG
ENERGY: 0 0.3078 2.9305 1.0450 0.0000 -10739.6946 1474.2050 0.0000 0.0000 1813.0245 -7448.1820 308.9588 -9261.2064 -7448.1820 308.9588 630.9238 721.0298 29926.3737 630.9238 721.0298
ENERGY: 300000 2.7260 6.1785 1.0500 0.0000 -10797.3973 1474.5141 0.0000 0.0000 1782.3239 -7530.6049 303.7271 -9312.9288 -7462.6087 305.8295 155.6282 268.0043 30223.3577 139.6930 203.8689
ENERGY: 600000 1.9502 3.0880 2.0963 0.0000 -10545.1778 1319.0918 0.0000 0.0000 1764.7593 -7454.1922 300.7339 -9218.9515 -7487.0923 302.4611 -1161.7940 -1072.3331 30956.6343 -153.2447 -77.1170
ENERGY: 900000 0.5958 4.8854 1.1529 0.0000 -10734.4554 1373.7089 0.0000 0.0000 1733.4889 -7620.6236 295.4051 -9354.1125 -7506.0806 301.3341 -678.1502 -662.6402 30242.3551 -242.4454 -174.5614
ENERGY: 1200000 1.3510 3.2142 0.9337 0.0000 -10625.2542 1388.2560 0.0000 0.0000 1762.7207 -7468.7787 300.3865 -9231.4994 -7503.1598 300.2340 -219.2915 -120.3429 30190.8259 -132.2971 -58.0058
ENERGY: 1500000 2.3632 2.9994 3.1660 0.0000 -10712.1395 1451.5769 0.0000 0.0000 1773.9127 -7478.1213 302.2938 -9252.0340 -7501.0144 300.1838 -59.1861 -79.8725 30738.1235 -166.4220 -96.9080
TCL: Running FEP window  10: Lambda1 0.5499999999999996 Lambda2 0.4999999999999996 [dLambda -0.04999999999999999]
TCL: Setting parameter firsttimestep to 0
TCL: Setting parameter alchLambda to 0.5499999999999996
Info: NONBONDED TABLE R-SQUARED SPACING: 0.0625
Info: NONBONDED TABLE SIZE: 705 POINTS
TCL: Setting parameter alchLambda2 to 0.4999999999999996
Info: NONBONDED TABLE R-SQUARED SPACING: 0.0625
Info: NONBONDED TABLE SIZE: 705 POINTS
TCL: Running for 1500000 steps
ETITLE: TS BOND ANGLE DIHED IMPRP ELECT VDW BOUNDARY MISC KINETIC TOTAL TEMP POTENTIAL TOTALAVG TEMPAVG PRESSURE GPRESSURE VOLUME PRESSAVG GPRESSAVG
ENERGY: 0 2.3632 2.9994 3.1660 0.0000 -10712.3823 1451.9886 0.0000 0.0000 1773.0507 -7478.8144 302.1469 -9251.8651 -7478.8144 302.1469 -162.4367 -81.0174 30738.1235 -162.4367 -81.0174
ENERGY: 300000 0.5648 8.1950 2.3039 0.0000 -10758.8892 1460.6195 0.0000 0.0000 1763.2377 -7523.9683 300.4746 -9287.2060 -7465.9718 300.8734 155.2037 249.3462 30385.2845 -171.2790 -81.8122
ENERGY: 600000 1.1168 7.1366 2.0741 0.0000 -10686.0770 1399.6625 0.0000 0.0000 1832.8386 -7443.2483 312.3354 -9276.0869 -7466.1023 303.8017 -339.2591 -348.7249 30444.9928 -160.5936 -98.1530
ENERGY: 900000 0.4752 2.4875 1.4096 0.0000 -10628.1926 1384.6085 0.0000 0.0000 1766.9905 -7472.2214 301.1141 -9239.2118 -7460.8416 302.5171 -286.1896 -236.9938 30137.4040 -213.9509 -152.7242
ENERGY: 1200000 3.3465 3.7465 2.8483 0.0000 -10608.3935 1369.6194 0.0000 0.0000 1801.6878 -7427.1450 307.0269 -9228.8328 -7463.3378 302.4384 -429.8655 -387.2840 30490.9016 -246.2316 -181.5174
ENERGY: 1500000 0.8815 3.2925 1.4002 0.0000 -10845.3002 1530.9493 0.0000 0.0000 1757.0168 -7551.7600 299.4145 -9308.7767 -7473.7152 302.3549 398.2412 540.0723 30313.9792 -113.2297 -43.6752
TCL: Running FEP window  11: Lambda1 0.4999999999999996 Lambda2 0.4499999999999996 [dLambda -0.04999999999999999]
TCL: Setting parameter firsttimestep to 0
TCL: Setting parameter alchLambda to 0.4999999999999996
Info: NONBONDED TABLE R-SQUARED SPACING: 0.0625
Info: NONBONDED TABLE SIZE: 705 POINTS
TCL: Setting parameter alchLambda2 to 0.4499999999999996
Info: NONBONDED TABLE R-SQUARED SPACING: 0.0625
Info: NONBONDED TABLE SIZE: 705 POINTS
TCL: Running for 1500000 steps
ETITLE: TS BOND ANGLE DIHED IMPRP ELECT VDW BOUNDARY MISC KINETIC TOTAL TEMP POTENTIAL TOTALAVG TEMPAVG PRESSURE GPRESSURE VOLUME PRESSAVG GPRESSAVG
ENERGY: 0 0.8815 3.2925 1.4002 0.0000 -10845.2183 1531.0376 0.0000 0.0000 1756.0958 -7552.5108 299.2576 -9308.6065 -7552.5108 299.2576 457.4772 534.5756 30313.9792 457.4772 534.5756
ENERGY: 300000 0.9747 3.3575 1.3203 0.0000 -10628.1917 1338.2444 0.0000 0.0000 1771.1582 -7513.1365 301.8244 -9284.2947 -7525.4647 297.9861 -922.9830 -910.2234 30340.3212 -252.7524 -205.6704
ENERGY: 600000 1.7317 6.1494 1.4879 0.0000 -10831.8248 1513.7569 0.0000 0.0000 1750.0052 -7558.6936 298.2197 -9308.6988 -7539.2556 298.1119 856.1125 846.8080 29801.0767 43.5991 102.4806
ENERGY: 900000 1.0228 5.5239 2.2344 0.0000 -10624.3113 1346.0081 0.0000 0.0000 1770.2872 -7499.2350 301.6759 -9269.5221 -7527.0567 298.2413 -897.1028 -850.2632 30542.3708 -44.5559 23.7623
ENERGY: 1200000 0.5524 2.6114 0.8711 0.0000 -10654.4681 1400.0601 0.0000 0.0000 1769.3372 -7481.0358 301.5141 -9250.3731 -7518.1249 298.9799 -297.7319 -245.4300 30683.2965 -116.2863 -45.1055
ENERGY: 1500000 0.5460 4.4069 1.1102 0.0000 -10860.2308 1520.7477 0.0000 0.0000 1755.3148 -7578.1052 299.1245 -9333.4200 -7523.8183 298.4530 398.1640 434.2551 30163.8292 -45.6003 22.9697
TCL: Running FEP window  12: Lambda1 0.4499999999999996 Lambda2 0.39999999999999963 [dLambda -0.04999999999999999]
TCL: Setting parameter firsttimestep to 0
TCL: Setting parameter alchLambda to 0.4499999999999996
Info: NONBONDED TABLE R-SQUARED SPACING: 0.0625
Info: NONBONDED TABLE SIZE: 705 POINTS
TCL: Setting parameter alchLambda2 to 0.39999999999999963
Info: NONBONDED TABLE R-SQUARED SPACING: 0.0625
Info: NONBONDED TABLE SIZE: 705 POINTS
TCL: Running for 1500000 steps
ETITLE: TS BOND ANGLE DIHED IMPRP ELECT VDW BOUNDARY MISC KINETIC TOTAL TEMP POTENTIAL TOTALAVG TEMPAVG PRESSURE GPRESSURE VOLUME PRESSAVG GPRESSAVG
ENERGY: 0 0.5460 4.4069 1.1102 0.0000 -10860.2302 1520.6137 0.0000 0.0000 1754.4288 -7579.1247 298.9735 -9333.5534 -7579.1247 298.9735 339.8619 430.1764 30163.8292 339.8619 430.1764
ENERGY: 300000 1.0617 3.7942 0.9265 0.0000 -10707.0464 1411.5469 0.0000 0.0000 1775.3480 -7514.3690 302.5383 -9289.7170 -7524.3260 300.2026 -17.3306 33.9813 29837.7949 25.5098 95.6507
ENERGY: 600000 2.4122 2.2349 3.1315 0.0000 -10747.5868 1479.4224 0.0000 0.0000 1680.8638 -7579.5220 286.4372 -9260.3858 -7498.3074 299.3363 110.6456 171.2901 30581.2616 71.8539 144.0632
ENERGY: 900000 0.5103 5.0582 0.8909 0.0000 -10647.1947 1359.0826 0.0000 0.0000 1717.6229 -7564.0296 292.7014 -9281.6526 -7495.3918 298.8434 -750.0339 -696.9040 30541.8146 -85.4795 -18.9219
ENERGY: 1200000 0.2197 3.2748 1.0415 0.0000 -10618.3416 1345.0525 0.0000 0.0000 1731.8860 -7536.8670 295.1320 -9268.7529 -7500.9899 299.1002 -1019.6207 -983.5922 31001.4560 -136.3745 -71.7877
ENERGY: 1500000 1.3126 2.8737 1.3319 0.0000 -10726.1567 1430.5033 0.0000 0.0000 1776.1024 -7514.0326 302.6669 -9290.1350 -7498.9418 300.0161 -240.9001 -152.8872 30517.4438 -133.1703 -62.1859
TCL: Running FEP window  13: Lambda1 0.39999999999999963 Lambda2 0.34999999999999964 [dLambda -0.04999999999999999]
TCL: Setting parameter firsttimestep to 0
TCL: Setting parameter alchLambda to 0.39999999999999963
Info: NONBONDED TABLE R-SQUARED SPACING: 0.0625
Info: NONBONDED TABLE SIZE: 705 POINTS
TCL: Setting parameter alchLambda2 to 0.34999999999999964
Info: NONBONDED TABLE R-SQUARED SPACING: 0.0625
Info: NONBONDED TABLE SIZE: 705 POINTS
TCL: Running for 1500000 steps
ETITLE: TS BOND ANGLE DIHED IMPRP ELECT VDW BOUNDARY MISC KINETIC TOTAL TEMP POTENTIAL TOTALAVG TEMPAVG PRESSURE GPRESSURE VOLUME PRESSAVG GPRESSAVG
ENERGY: 0 1.3126 2.8737 1.3319 0.0000 -10726.1559 1430.9985 0.0000 0.0000 1775.2186 -7514.4205 302.5163 -9289.6391 -7514.4205 302.5163 -251.5072 -153.4972 30517.4438 -251.5072 -153.4972
ENERGY: 300000 1.9425 3.8955 1.4221 0.0000 -10816.4563 1497.0560 0.0000 0.0000 1743.6429 -7568.4972 297.1355 -9312.1401 -7525.5364 300.6976 287.2376 339.8500 30177.8663 -55.6368 28.4113
ENERGY: 600000 1.0168 6.0610 1.3006 0.0000 -10843.1711 1472.5640 0.0000 0.0000 1767.8345 -7594.3943 301.2580 -9362.2288 -7537.8454 300.0215 -148.6187 -54.4561 30186.8859 -30.9150 48.6436
ENERGY: 900000 0.2834 8.5442 1.3276 0.0000 -10721.6030 1498.0627 0.0000 0.0000 1740.7682 -7472.6167 296.6456 -9213.3849 -7521.4611 300.1894 357.1608 455.7564 30771.1577 -59.9966 11.3351
ENERGY: 1200000 2.4889 4.8913 2.3410 0.0000 -10612.5290 1373.5006 0.0000 0.0000 1790.7821 -7438.5252 305.1685 -9229.3073 -7512.5656 300.8836 -488.8743 -506.7206 30275.3789 -40.5266 19.3069
ENERGY: 1500000 0.3897 6.7267 1.3584 0.0000 -10707.9263 1451.9784 0.0000 0.0000 1763.2720 -7484.2011 300.4805 -9247.4731 -7507.8017 300.6856 54.3017 81.3120 30577.3501 -14.6225 42.2274
TCL: Running FEP window  14: Lambda1 0.34999999999999964 Lambda2 0.29999999999999966 [dLambda -0.04999999999999999]
TCL: Setting parameter firsttimestep to 0
TCL: Setting parameter alchLambda to 0.34999999999999964
Info: NONBONDED TABLE R-SQUARED SPACING: 0.0625
Info: NONBONDED TABLE SIZE: 705 POINTS
TCL: Setting parameter alchLambda2 to 0.29999999999999966
Info: NONBONDED TABLE R-SQUARED SPACING: 0.0625
Info: NONBONDED TABLE SIZE: 705 POINTS
TCL: Running for 1500000 steps
ETITLE: TS BOND ANGLE DIHED IMPRP ELECT VDW BOUNDARY MISC KINETIC TOTAL TEMP POTENTIAL TOTALAVG TEMPAVG PRESSURE GPRESSURE VOLUME PRESSAVG GPRESSAVG
ENERGY: 0 0.3897 6.7267 1.3584 0.0000 -10707.9260 1452.3715 0.0000 0.0000 1762.3855 -7484.6942 300.3294 -9247.0797 -7484.6942 300.3294 2.7135 82.2632 30577.3501 2.7135 82.2632
ENERGY: 300000 0.1682 4.1276 2.2380 0.0000 -10680.0365 1400.1561 0.0000 0.0000 1765.4549 -7507.8916 300.8525 -9273.3466 -7478.2544 302.5862 -334.2717 -279.7402 30271.4430 60.2060 113.5767
ENERGY: 600000 2.2256 5.2648 1.0951 0.0000 -10643.0930 1346.7875 0.0000 0.0000 1712.3791 -7575.3409 291.8078 -9287.7201 -7513.4699 298.3291 -1013.3897 -906.2686 30449.6837 -172.1145 -113.3316
ENERGY: 900000 0.3025 3.3249 3.3845 0.0000 -10797.5910 1507.9540 0.0000 0.0000 1796.3500 -7486.2751 306.1173 -9282.6251 -7510.1672 298.3526 559.8555 649.0618 30111.6124 -150.1962 -81.5625
ENERGY: 1200000 2.3004 7.5821 2.0094 0.0000 -10617.8957 1354.0918 0.0000 0.0000 1739.1964 -7512.7155 296.3777 -9251.9119 -7505.1912 298.2376 -987.0594 -837.1594 30549.2066 -161.4847 -84.2183
ENERGY: 1500000 0.4614 3.4399 1.1848 0.0000 -10525.2134 1286.0900 0.0000 0.0000 1737.2367 -7496.8006 296.0438 -9234.0373 -7505.9599 298.2483 -1081.1429 -1079.2434 30171.8586 -206.6406 -137.5127
TCL: Running FEP window  15: Lambda1 0.29999999999999966 Lambda2 0.24999999999999967 [dLambda -0.04999999999999999]
TCL: Setting parameter firsttimestep to 0
TCL: Setting parameter alchLambda to 0.29999999999999966
Info: NONBONDED TABLE R-SQUARED SPACING: 0.0625
Info: NONBONDED TABLE SIZE: 705 POINTS
TCL: Setting parameter alchLambda2 to 0.24999999999999967
Info: NONBONDED TABLE R-SQUARED SPACING: 0.0625
Info: NONBONDED TABLE SIZE: 705 POINTS
TCL: Running for 1500000 steps
ETITLE: TS BOND ANGLE DIHED IMPRP ELECT VDW BOUNDARY MISC KINETIC TOTAL TEMP POTENTIAL TOTALAVG TEMPAVG PRESSURE GPRESSURE VOLUME PRESSAVG GPRESSAVG
ENERGY: 0 0.4614 3.4399 1.1848 0.0000 -10525.2134 1285.9837 0.0000 0.0000 1736.3772 -7497.7665 295.8973 -9234.1437 -7497.7665 295.8973 -1147.9325 -1085.8626 30171.8586 -1147.9325 -1085.8626
ENERGY: 300000 0.5266 4.2191 1.0113 0.0000 -10746.0902 1496.4586 0.0000 0.0000 1787.4643 -7456.4103 304.6031 -9243.8746 -7460.5731 299.7563 664.8585 753.9441 29867.6942 -239.6253 -168.7941
ENERGY: 600000 0.3366 3.9053 1.7163 0.0000 -10726.9564 1461.7720 0.0000 0.0000 1752.7420 -7506.4841 298.6861 -9259.2262 -7460.0350 301.8791 -33.7202 35.7148 30471.4528 -148.6778 -89.4005
ENERGY: 900000 0.4977 4.0236 2.0981 0.0000 -10744.8745 1418.4088 0.0000 0.0000 1727.6739 -7592.1724 294.4142 -9319.8463 -7473.2446 300.3648 -201.5514 -144.5219 30037.3493 -138.4490 -83.2251
ENERGY: 1200000 0.3599 4.3758 1.0968 0.0000 -10690.9681 1467.9741 0.0000 0.0000 1762.9606 -7454.2008 300.4274 -9217.1614 -7460.1803 300.7553 133.1810 212.7074 30580.2714 -187.0641 -133.6155
ENERGY: 1500000 1.2681 5.6423 1.4189 0.0000 -10642.9248 1401.9431 0.0000 0.0000 1730.5670 -7502.0854 294.9072 -9232.6524 -7470.1563 301.0268 -647.4734 -548.3180 30642.8595 -199.0348 -143.4438
TCL: Running FEP window  16: Lambda1 0.24999999999999967 Lambda2 0.19999999999999968 [dLambda -0.04999999999999999]
TCL: Setting parameter firsttimestep to 0
TCL: Setting parameter alchLambda to 0.24999999999999967
Info: NONBONDED TABLE R-SQUARED SPACING: 0.0625
Info: NONBONDED TABLE SIZE: 705 POINTS
TCL: Setting parameter alchLambda2 to 0.19999999999999968
Info: NONBONDED TABLE R-SQUARED SPACING: 0.0625
Info: NONBONDED TABLE SIZE: 705 POINTS
TCL: Running for 1500000 steps
ETITLE: TS BOND ANGLE DIHED IMPRP ELECT VDW BOUNDARY MISC KINETIC TOTAL TEMP POTENTIAL TOTALAVG TEMPAVG PRESSURE GPRESSURE VOLUME PRESSAVG GPRESSAVG
ENERGY: 0 1.2681 5.6423 1.4189 0.0000 -10642.9259 1400.2411 0.0000 0.0000 1729.6636 -7504.6919 294.7532 -9234.3555 -7504.6919 294.7532 -636.9103 -558.3728 30642.8595 -636.9103 -558.3728
ENERGY: 300000 0.7634 3.5667 1.7482 0.0000 -10751.0011 1447.0742 0.0000 0.0000 1753.8444 -7544.0042 298.8739 -9297.8486 -7560.0135 297.7486 -46.9212 -26.8399 30144.7509 -178.7382 -131.4868
ENERGY: 600000 1.5034 2.4729 3.2621 0.0000 -10806.3294 1456.8350 0.0000 0.0000 1741.7672 -7600.4888 296.8158 -9342.2560 -7549.1266 296.3900 111.7223 203.2209 29722.1950 -132.0350 -78.1509
ENERGY: 900000 0.8175 2.7588 1.0052 0.0000 -10711.4547 1434.1891 0.0000 0.0000 1788.9062 -7483.7779 304.8488 -9272.6841 -7533.3241 298.3505 -139.5540 -73.3569 30508.9219 -210.3940 -157.5173
ENERGY: 1200000 1.3751 5.9731 1.5287 0.0000 -10729.4082 1461.0723 0.0000 0.0000 1729.3421 -7530.1168 294.6985 -9259.4589 -7512.6451 299.4607 62.1261 102.0278 30126.1397 -221.5015 -166.0413
ENERGY: 1500000 0.6546 2.6008 1.9398 0.0000 -10729.0457 1439.1199 0.0000 0.0000 1753.5752 -7531.1553 298.8280 -9284.7305 -7504.7290 299.7196 -156.6795 -43.9567 30092.4949 -161.6900 -99.9339
TCL: Running FEP window  17: Lambda1 0.19999999999999968 Lambda2 0.1499999999999997 [dLambda -0.04999999999999999]
TCL: Setting parameter firsttimestep to 0
TCL: Setting parameter alchLambda to 0.19999999999999968
Info: NONBONDED TABLE R-SQUARED SPACING: 0.0625
Info: NONBONDED TABLE SIZE: 705 POINTS
TCL: Setting parameter alchLambda2 to 0.1499999999999997
Info: NONBONDED TABLE R-SQUARED SPACING: 0.0625
Info: NONBONDED TABLE SIZE: 705 POINTS
TCL: Running for 1500000 steps
ETITLE: TS BOND ANGLE DIHED IMPRP ELECT VDW BOUNDARY MISC KINETIC TOTAL TEMP POTENTIAL TOTALAVG TEMPAVG PRESSURE GPRESSURE VOLUME PRESSAVG GPRESSAVG
ENERGY: 0 0.6546 2.6008 1.9398 0.0000 -10729.0454 1439.2737 0.0000 0.0000 1752.6350 -7531.9414 298.6678 -9284.5764 -7531.9414 298.6678 -125.1005 -47.8922 30092.4949 -125.1005 -47.8922
ENERGY: 300000 0.6026 6.0220 1.1695 0.0000 -10603.4450 1349.4719 0.0000 0.0000 1760.6854 -7485.4936 300.0397 -9246.1791 -7481.7201 303.3177 -668.7580 -573.7886 30276.7731 -88.7031 -25.1446
ENERGY: 600000 1.3573 6.1587 2.3915 0.0000 -10625.2407 1443.0623 0.0000 0.0000 1783.4275 -7388.8434 303.9152 -9172.2709 -7487.4144 300.9487 116.9819 155.6755 30413.0899 -107.3670 -52.7102
ENERGY: 900000 1.8538 6.2927 1.6028 0.0000 -10711.5679 1442.2245 0.0000 0.0000 1770.1205 -7489.4736 301.6475 -9259.5941 -7496.6244 301.0250 -18.0365 -7.2068 30350.7852 -89.9344 -26.7458
ENERGY: 1200000 0.7892 3.5111 1.7824 0.0000 -10802.0197 1528.8307 0.0000 0.0000 1746.6181 -7520.4883 297.6425 -9267.1064 -7492.5495 300.1314 873.4201 994.8509 29669.6160 64.5186 131.2023
ENERGY: 1500000 0.1190 7.8300 1.5651 0.0000 -10827.9056 1547.9255 0.0000 0.0000 1789.0444 -7481.4215 304.8724 -9270.4659 -7491.7675 300.7106 836.3321 859.0816 30105.8631 62.4484 134.7472
TCL: Running FEP window  18: Lambda1 0.1499999999999997 Lambda2 0.09999999999999969 [dLambda -0.05 ]
TCL: Setting parameter firsttimestep to 0
TCL: Setting parameter alchLambda to 0.1499999999999997
Info: NONBONDED TABLE R-SQUARED SPACING: 0.0625
Info: NONBONDED TABLE SIZE: 705 POINTS
TCL: Setting parameter alchLambda2 to 0.09999999999999969
Info: NONBONDED TABLE R-SQUARED SPACING: 0.0625
Info: NONBONDED TABLE SIZE: 705 POINTS
TCL: Running for 1500000 steps
ETITLE: TS BOND ANGLE DIHED IMPRP ELECT VDW BOUNDARY MISC KINETIC TOTAL TEMP POTENTIAL TOTALAVG TEMPAVG PRESSURE GPRESSURE VOLUME PRESSAVG GPRESSAVG
ENERGY: 0 0.1190 7.8300 1.5651 0.0000 -10827.9048 1548.3732 0.0000 0.0000 1788.1786 -7481.8388 304.7248 -9270.0174 -7481.8388 304.7248 769.4279 857.8126 30105.8631 769.4279 857.8126
ENERGY: 300000 0.9863 5.5342 1.0402 0.0000 -10575.7842 1372.9815 0.0000 0.0000 1808.6990 -7386.5430 308.2217 -9195.2420 -7497.8766 299.2690 -499.6214 -372.0509 30618.7091 274.6065 341.4989
ENERGY: 600000 1.4896 4.8313 1.4049 0.0000 -10697.3117 1536.7570 0.0000 0.0000 1741.3025 -7411.5264 296.7366 -9152.8288 -7487.3431 298.3060 1089.6903 1114.8928 30437.7043 426.4742 503.6188
ENERGY: 900000 1.3549 3.9774 1.7123 0.0000 -10658.1425 1411.1545 0.0000 0.0000 1729.3608 -7510.5826 294.7016 -9239.9435 -7492.8801 298.2173 -313.4945 -232.5429 30323.2827 152.2710 221.1153
ENERGY: 1200000 1.4529 4.1880 1.8332 0.0000 -10610.9505 1346.0665 0.0000 0.0000 1721.5014 -7535.9085 293.3623 -9257.4099 -7495.5720 298.0100 -731.3904 -657.2671 30228.5224 21.2994 84.4270
ENERGY: 1500000 0.5645 4.9491 1.0757 0.0000 -10697.9568 1418.0265 0.0000 0.0000 1738.4997 -7534.8413 296.2590 -9273.3410 -7496.1268 298.5587 -408.8167 -306.2027 30419.2361 -42.0620 25.7339
TCL: Running FEP window  19: Lambda1 0.09999999999999969 Lambda2 0.049999999999999684 [dLambda -0.05 ]
TCL: Setting parameter firsttimestep to 0
TCL: Setting parameter alchLambda to 0.09999999999999969
Info: NONBONDED TABLE R-SQUARED SPACING: 0.0625
Info: NONBONDED TABLE SIZE: 705 POINTS
TCL: Setting parameter alchLambda2 to 0.049999999999999684
Info: NONBONDED TABLE R-SQUARED SPACING: 0.0625
Info: NONBONDED TABLE SIZE: 705 POINTS
TCL: Running for 1500000 steps
ETITLE: TS BOND ANGLE DIHED IMPRP ELECT VDW BOUNDARY MISC KINETIC TOTAL TEMP POTENTIAL TOTALAVG TEMPAVG PRESSURE GPRESSURE VOLUME PRESSAVG GPRESSAVG
ENERGY: 0 0.5645 4.9491 1.0757 0.0000 -10697.9578 1416.9126 0.0000 0.0000 1737.6415 -7536.8144 296.1128 -9274.4559 -7536.8144 296.1128 -396.7114 -312.0404 30419.2361 -396.7114 -312.0404
ENERGY: 300000 2.1982 3.7427 0.8425 0.0000 -10630.2234 1393.2135 0.0000 0.0000 1774.9460 -7455.2806 302.4698 -9230.2265 -7463.9274 302.7721 -394.6863 -312.1181 30586.4973 -362.4524 -279.4032
ENERGY: 600000 0.9234 4.4850 2.0253 0.0000 -10761.8384 1490.3197 0.0000 0.0000 1768.0087 -7496.0763 301.2877 -9264.0850 -7466.3084 301.9473 315.2797 340.4977 30377.9641 -90.3170 -35.2656
ENERGY: 900000 3.2743 4.3416 1.9170 0.0000 -10686.5204 1391.4142 0.0000 0.0000 1744.8754 -7540.6979 297.3455 -9285.5733 -7474.1796 300.4352 -788.5446 -638.8414 30805.9828 -134.2838 -62.0181
ENERGY: 1200000 0.7907 2.7075 0.8704 0.0000 -10772.2325 1506.9443 0.0000 0.0000 1705.1353 -7555.7842 290.5734 -9260.9196 -7487.9070 298.6755 575.3353 701.3849 29959.4261 -116.6631 -42.1904
ENERGY: 1500000 1.1159 3.8851 3.8275 0.0000 -10758.7690 1450.5744 0.0000 0.0000 1787.3567 -7512.0095 304.5848 -9299.3662 -7495.9743 298.9391 93.8378 91.3450 30223.3521 -35.1984 29.5044
TCL: Running FEP window  20: Lambda1 0.049999999999999684 Lambda2 0.0    [dLambda -0.049999999999999684]
TCL: Setting parameter firsttimestep to 0
TCL: Setting parameter alchLambda to 0.049999999999999684
Info: NONBONDED TABLE R-SQUARED SPACING: 0.0625
Info: NONBONDED TABLE SIZE: 705 POINTS
TCL: Setting parameter alchLambda2 to 0.0
Info: NONBONDED TABLE R-SQUARED SPACING: 0.0625
Info: NONBONDED TABLE SIZE: 705 POINTS
TCL: Running for 1500000 steps
ETITLE: TS BOND ANGLE DIHED IMPRP ELECT VDW BOUNDARY MISC KINETIC TOTAL TEMP POTENTIAL TOTALAVG TEMPAVG PRESSURE GPRESSURE VOLUME PRESSAVG GPRESSAVG
ENERGY: 0 1.1159 3.8851 3.8275 0.0000 -10758.7700 1450.7886 0.0000 0.0000 1786.4843 -7512.6686 304.4361 -9299.1529 -7512.6686 304.4361 7.7612 91.0828 30223.3521 7.7612 91.0828
ENERGY: 300000 0.5740 4.6545 2.1760 0.0000 -10647.7125 1402.2170 0.0000 0.0000 1761.7575 -7476.3335 300.2224 -9238.0910 -7489.1483 302.1999 -291.7149 -258.7846 30259.0207 -147.5397 -84.2744
ENERGY: 600000 1.6798 5.5799 1.6305 0.0000 -10773.5843 1541.0016 0.0000 0.0000 1697.9348 -7525.7577 289.3463 -9223.6925 -7493.5503 300.4509 642.8597 778.3217 30273.5496 52.0726 119.6722
ENERGY: 900000 0.2310 5.0592 0.9029 0.0000 -10828.3990 1439.7120 0.0000 0.0000 1727.3918 -7655.1021 294.3661 -9382.4939 -7523.8548 298.7258 -182.6345 -162.5192 29998.7250 -20.9783 32.7578
ENERGY: 1200000 1.3389 10.2614 2.0316 0.0000 -10871.3054 1567.9374 0.0000 0.0000 1805.2215 -7484.5145 307.6291 -9289.7360 -7517.9304 299.5526 1125.0795 1234.7168 29693.2688 62.0614 127.8280
ENERGY: 1500000 0.7197 3.8644 1.2885 0.0000 -10790.2406 1472.5351 0.0000 0.0000 1791.3385 -7520.4944 305.2633 -9311.8329 -7510.8901 299.7107 -37.2224 24.0230 30375.6765 41.7272 112.2124
TCL: Exiting due to exit command.
