Info: SIMULATION PARAMETERS:
Info: TIMESTEP               2
Info: NUMBER OF STEPS        0
Info: STEPS PER CYCLE        10
Info: PERIODIC CELL BASIS 1  30.864 0 0
Info: PERIODIC CELL BASIS 2  0 30.2236 0
Info: PERIODIC CELL BASIS 3  0 0 32.8128
Info: PERIODIC CELL CENTER   0 0 0
Info: WRAPPING WATERS AROUND PERIODIC BOUNDARIES ON OUTPUT.
Info: WRAPPING ALL CLUSTERS AROUND PERIODIC BOUNDARIES ON OUTPUT.
Info: FIRST LDB TIMESTEP     50
Info: LAST LDB TIMESTEP     -1
Info: HOM BACKGROUND SCALING 1
Info: PME BACKGROUND SCALING 1
Info: MIN ATOMS PER PATCH    40
Info: EMPTY PATCH LOAD       40 ATOMS
Info: VELOCITY FILE          mobley_3040612_equil.vel
Info: CENTER OF MASS MOVING INITIALLY? NO
Info: DIELECTRIC             1
Info: EXCLUDE                SCALED ONE-FOUR
Info: 1-4 ELECTROSTATICS SCALED BY 0.833333
Info: MODIFIED 1-4 VDW PARAMETERS WILL BE USED
Info: DCD FILENAME           mobley_3040612_prod.dcd
Info: DCD FREQUENCY          100000
Info: DCD FIRST STEP         100000
Info: DCD FILE WILL CONTAIN UNIT CELL DATA
Info: XST FILENAME           mobley_3040612_prod.xst
Info: XST FREQUENCY          100000
Info: NO VELOCITY DCD OUTPUT
Info: NO FORCE DCD OUTPUT
Info: OUTPUT FILENAME        mobley_3040612_prod
Info: BINARY OUTPUT FILES WILL BE USED
Info: RESTART FILENAME       mobley_3040612_prod.restart
Info: RESTART FREQUENCY      100000
Info: BINARY RESTART FILES WILL BE USED
Info: CUTOFF                 9
Info: PAIRLIST DISTANCE      11
Info: PAIRLIST SHRINK RATE   0.01
Info: PAIRLIST GROW RATE     0.01
Info: PAIRLIST TRIGGER       0.3
Info: PAIRLISTS PER CYCLE    2
Info: PAIRLISTS ENABLED
Info: MARGIN                 2
Info: HYDROGEN GROUP CUTOFF  2.5
Info: PATCH DIMENSION        15.5
Info: ENERGY OUTPUT STEPS    100000
Info: ENERGY EVALUATION STEPS    100000
Info: OUTPUT ENERGY PRECISION 4
Info: CROSSTERM ENERGY INCLUDED IN DIHEDRAL
Info: TIMING OUTPUT STEPS    1000000
Info: PRESSURE OUTPUT STEPS  100000
Info: ALCHEMICAL FEP ON
Info: FEP CURRENT LAMBDA VALUE     0
Info: FEP COMPARISON LAMBDA VALUE  0.05
Info: FEP INTRA-ALCHEMICAL NON-BONDED INTERACTIONS WILL BE RETAINED
Info: FEP INTRA-ALCHEMICAL BONDED INTERACTIONS WILL BE RETAINED
Info: FEP VDW SHIFTING COEFFICIENT 5
Info: FEP ELEC. ACTIVE FOR ANNIHILATED PARTICLES BETWEEN LAMBDA = 0 AND LAMBDA = 0.5
Info: FEP ELEC. ACTIVE FOR EXNIHILATED PARTICLES BETWEEN LAMBDA = 0.5 AND LAMBDA = 1
Info: FEP VDW ACTIVE FOR ANNIHILATED PARTICLES BETWEEN LAMBDA = 0 AND LAMBDA = 1
Info: FEP VDW ACTIVE FOR EXNIHILATED PARTICLES BETWEEN LAMBDA = 0 AND LAMBDA = 1
Info: FEP BOND ACTIVE FOR ANNIHILATED PARTICLES BETWEEN LAMBDA = 1 AND LAMBDA = 1
Info: FEP BOND ACTIVE FOR EXNIHILATED PARTICLES BETWEEN LAMBDA = 0 AND LAMBDA = 0
Info: LANGEVIN DYNAMICS ACTIVE
Info: LANGEVIN TEMPERATURE   300
Info: LANGEVIN USING BBK INTEGRATOR
Info: LANGEVIN DAMPING COEFFICIENT IS 1 INVERSE PS
Info: LANGEVIN DYNAMICS APPLIED TO HYDROGENS
Info: LANGEVIN PISTON PRESSURE CONTROL ACTIVE
Info:        TARGET PRESSURE IS 1.01325 BAR
Info:     OSCILLATION PERIOD IS 50 FS
Info:             DECAY TIME IS 25 FS
Info:     PISTON TEMPERATURE IS 300 K
Info:       PRESSURE CONTROL IS GROUP-BASED
Info:    INITIAL STRAIN RATE IS -5.36655e-05 -5.36655e-05 -5.36655e-05
Info:       CELL FLUCTUATION IS ISOTROPIC
Info: PARTICLE MESH EWALD (PME) ACTIVE
Info: PME TOLERANCE               1e-06
Info: PME EWALD COEFFICIENT       0.348832
Info: PME INTERPOLATION ORDER     4
Info: PME GRID DIMENSIONS         32 32 36
Info: PME MAXIMUM GRID SPACING    1
Info: PME CALCULATION WILL BE PERFORMED ON GPU
Info: FULL ELECTROSTATIC EVALUATION FREQUENCY      2
Info: USING VERLET I (r-RESPA) MTS SCHEME.
Info: C1 SPLITTING OF LONG RANGE ELECTROSTATICS
Info: PLACING ATOMS IN PATCHES BY HYDROGEN GROUPS
Info: RIGID BONDS TO HYDROGEN : ALL
Info:         ERROR TOLERANCE : 1e-08
Info:          MAX ITERATIONS : 100
Info: RIGID WATER USING SETTLE ALGORITHM
Info: RANDOM NUMBER SEED     1743786430
Info: USE HYDROGEN BONDS?    NO
Info: Using AMBER format force field!
Info: AMBER PARM FILE        mobley_3040612.prmtop
Info: COORDINATE PDB         mobley_3040612.pdb
Info: Exclusions will be read from PARM file!
Info: SCNB (VDW SCALING)     2
Info: USING ARITHMETIC MEAN TO COMBINE L-J SIGMA PARAMETERS
Info: BINARY COORDINATES     mobley_3040612_equil.coor
Info: SUMMARY OF PARAMETERS:
Info: 7 BONDS
Info: 7 ANGLES
Info:   7 HARMONIC
Info:   0 COSINE-BASED
Info: 5 DIHEDRAL
Info: 0 IMPROPER
Info: 0 CROSSTERM
Info: 0 VDW
Info: 21 VDW_PAIRS
Info: 0 NBTHOLE_PAIRS
Info: To read alchdata from file: mobley_3040612.pdb
Info: To read alchflag data from column: 5
Info: STRUCTURE SUMMARY:
Info: 2967 ATOMS
Info: 2967 BONDS
Info: 36 ANGLES
Info: 51 DIHEDRALS
Info: 0 IMPROPERS
Info: 0 CROSSTERMS
Info: 3045 EXCLUSIONS
Info: 2958 RIGID BONDS
Info: ALCH: 0 ATOMS TO DISAPPEAR IN FINAL STATE
Info: ALCH: 21 ATOMS TO APPEAR IN FINAL STATE
Info: 5943 DEGREES OF FREEDOM
Info: 991 HYDROGEN GROUPS
Info: 4 ATOMS IN LARGEST HYDROGEN GROUP
Info: 991 MIGRATION GROUPS
Info: 4 ATOMS IN LARGEST MIGRATION GROUP
Info: TOTAL MASS = 17811.9 amu
Info: TOTAL CHARGE = 3.72529e-09 e
Info: MASS DENSITY = 0.966334 g/cm^3
Info: ATOM DENSITY = 0.0969339 atoms/A^3
Info: ADDED 0 IMPLICIT EXCLUSIONS
Info: NONBONDED TABLE R-SQUARED SPACING: 0.0625
Info: NONBONDED TABLE SIZE: 705 POINTS
Info: REMOVING COM VELOCITY -0.0261718 -0.0633148 0.144082
Info: Use 3D box decompostion in PME FFT.
Info: Updated CUDA force table with 4096 elements.
Info: Updated CUDA LJ table with 6 x 6 elements.
Info: Found 20 unique exclusion lists needing 56 bytes
TCL: Running for 1500000 steps
ETITLE: TS BOND ANGLE DIHED IMPRP ELECT VDW BOUNDARY MISC KINETIC TOTAL TEMP POTENTIAL TOTALAVG TEMPAVG PRESSURE GPRESSURE VOLUME PRESSAVG GPRESSAVG
ENERGY: 0 3.3764 7.7729 4.4940 0.0000 -10742.6334 1428.0712 0.0000 0.0000 1752.6076 -7546.3113 296.8037 -9298.9189 -7546.3113 296.8037 -455.3216 -377.4469 30608.4948 -455.3216 -377.4469
ENERGY: 300000 3.1213 5.2915 1.5079 0.0000 -10695.8712 1406.0046 0.0000 0.0000 1775.3689 -7504.5769 300.6583 -9279.9458 -7501.5733 297.5777 -510.1704 -416.6138 30931.2178 -295.6115 -211.8074
ENERGY: 600000 1.2729 7.4161 1.5464 0.0000 -10850.4555 1514.2901 0.0000 0.0000 1796.2627 -7529.6673 304.1967 -9325.9300 -7502.2315 299.0426 547.8271 595.0844 30228.4238 -29.4050 27.1083
ENERGY: 900000 1.5823 7.7221 2.7653 0.0000 -10827.7013 1488.8571 0.0000 0.0000 1790.4987 -7536.2758 303.2206 -9326.7745 -7499.8852 300.8034 116.8259 195.8667 30381.3795 -13.6235 41.6715
ENERGY: 1200000 1.4935 8.9209 1.6394 0.0000 -10727.2185 1466.2722 0.0000 0.0000 1821.7784 -7427.1140 308.5178 -9248.8925 -7485.0479 301.0306 306.2026 328.6461 30291.0112 -30.5324 18.8877
ENERGY: 1500000 3.7809 5.0622 3.2037 0.0000 -10808.5266 1450.4738 0.0000 0.0000 1762.3088 -7583.6971 298.4466 -9346.0059 -7497.7204 300.4807 -168.8751 -138.3018 30057.3411 13.5704 58.0161
TCL: Running FEP window   2: Lambda1 0.05   Lambda2 0.1    [dLambda 0.05  ]
TCL: Setting parameter firsttimestep to 0
TCL: Setting parameter alchLambda to 0.05
Info: NONBONDED TABLE R-SQUARED SPACING: 0.0625
Info: NONBONDED TABLE SIZE: 705 POINTS
TCL: Setting parameter alchLambda2 to 0.1
Info: NONBONDED TABLE R-SQUARED SPACING: 0.0625
Info: NONBONDED TABLE SIZE: 705 POINTS
TCL: Running for 1500000 steps
ETITLE: TS BOND ANGLE DIHED IMPRP ELECT VDW BOUNDARY MISC KINETIC TOTAL TEMP POTENTIAL TOTALAVG TEMPAVG PRESSURE GPRESSURE VOLUME PRESSAVG GPRESSAVG
ENERGY: 0 3.7809 5.0622 3.2037 0.0000 -10808.5250 1452.0163 0.0000 0.0000 1761.4438 -7583.0180 298.3001 -9344.4618 -7583.0180 298.3001 -218.4393 -132.0681 30057.3411 -218.4393 -132.0681
ENERGY: 300000 4.0418 15.3143 1.2800 0.0000 -10584.7493 1407.4874 0.0000 0.0000 1771.2076 -7385.4182 299.9536 -9156.6258 -7479.7048 302.8070 -72.9942 -22.1677 30229.3668 191.9346 254.3279
ENERGY: 600000 3.8658 8.1015 2.3372 0.0000 -10671.3109 1441.8866 0.0000 0.0000 1705.8332 -7509.2867 288.8825 -9215.1199 -7500.2526 299.6534 -65.6351 42.8315 30583.6646 221.9765 292.3635
ENERGY: 900000 4.0885 7.4436 4.8781 0.0000 -10871.8833 1473.5387 0.0000 0.0000 1726.2258 -7655.7086 292.3360 -9381.9345 -7524.5821 297.9376 -209.9862 -50.4452 29902.0563 121.7717 197.9239
ENERGY: 1200000 1.7352 5.4894 4.3563 0.0000 -10728.2966 1449.3608 0.0000 0.0000 1776.0133 -7491.3417 300.7675 -9267.3550 -7520.0662 297.9810 -318.9026 -173.7615 30683.5903 111.5656 182.7074
ENERGY: 1500000 5.0497 13.4649 1.2129 0.0000 -10845.7218 1478.8706 0.0000 0.0000 1759.9938 -7587.1298 298.0546 -9347.1236 -7519.9597 297.6623 -219.0524 -148.0383 30146.2716 104.9060 177.4235
TCL: Running FEP window   3: Lambda1 0.1    Lambda2 0.15000000000000002 [dLambda 0.05000000000000002]
TCL: Setting parameter firsttimestep to 0
TCL: Setting parameter alchLambda to 0.1
Info: NONBONDED TABLE R-SQUARED SPACING: 0.0625
Info: NONBONDED TABLE SIZE: 705 POINTS
TCL: Setting parameter alchLambda2 to 0.15000000000000002
Info: NONBONDED TABLE R-SQUARED SPACING: 0.0625
Info: NONBONDED TABLE SIZE: 705 POINTS
TCL: Running for 1500000 steps
ETITLE: TS BOND ANGLE DIHED IMPRP ELECT VDW BOUNDARY MISC KINETIC TOTAL TEMP POTENTIAL TOTALAVG TEMPAVG PRESSURE GPRESSURE VOLUME PRESSAVG GPRESSAVG
ENERGY: 0 5.0497 13.4649 1.2129 0.0000 -10845.7240 1481.9575 0.0000 0.0000 1759.0920 -7584.9469 297.9019 -9344.0389 -7584.9469 297.9019 -218.8355 -133.4266 30146.2716 -218.8355 -133.4266
ENERGY: 300000 3.8582 4.3991 2.7343 0.0000 -10773.2926 1439.9744 0.0000 0.0000 1768.5112 -7553.8154 299.4970 -9322.3266 -7514.5935 300.4770 66.9883 156.1536 29573.2657 55.6188 147.2436
ENERGY: 600000 2.3078 3.8162 1.6148 0.0000 -10838.3505 1527.4111 0.0000 0.0000 1741.8236 -7561.3771 294.9775 -9303.2007 -7532.0127 298.6137 562.4756 629.0401 30029.7997 124.5349 195.5090
ENERGY: 900000 1.9696 5.4095 5.5513 0.0000 -10721.9287 1453.7663 0.0000 0.0000 1741.4231 -7513.8088 294.9096 -9255.2320 -7520.7701 298.6490 -429.5339 -351.1350 31054.9804 67.0518 129.8824
ENERGY: 1200000 1.9778 11.2604 2.9304 0.0000 -10654.3347 1441.0400 0.0000 0.0000 1797.3603 -7399.7658 304.3826 -9197.1261 -7498.1049 299.1825 131.8120 209.0386 30467.7877 48.4992 114.5895
ENERGY: 1500000 2.4643 7.2943 2.4486 0.0000 -10620.7142 1388.4807 0.0000 0.0000 1786.9062 -7433.1201 302.6122 -9220.0263 -7497.3711 299.5751 -189.5524 -114.8054 30212.2196 -41.8145 24.8207
TCL: Running FEP window   4: Lambda1 0.15000000000000002 Lambda2 0.2    [dLambda 0.04999999999999999]
TCL: Setting parameter firsttimestep to 0
TCL: Setting parameter alchLambda to 0.15000000000000002
Info: NONBONDED TABLE R-SQUARED SPACING: 0.0625
Info: NONBONDED TABLE SIZE: 705 POINTS
TCL: Setting parameter alchLambda2 to 0.2
Info: NONBONDED TABLE R-SQUARED SPACING: 0.0625
Info: NONBONDED TABLE SIZE: 705 POINTS
TCL: Running for 1500000 steps
ETITLE: TS BOND ANGLE DIHED IMPRP ELECT VDW BOUNDARY MISC KINETIC TOTAL TEMP POTENTIAL TOTALAVG TEMPAVG PRESSURE GPRESSURE VOLUME PRESSAVG GPRESSAVG
ENERGY: 0 2.4643 7.2943 2.4486 0.0000 -10620.7150 1390.3729 0.0000 0.0000 1786.0116 -7432.1232 302.4607 -9218.1348 -7432.1232 302.4607 -186.0001 -103.6267 30212.2196 -186.0001 -103.6267
ENERGY: 300000 4.9734 5.3063 4.1581 0.0000 -10729.4067 1466.9851 0.0000 0.0000 1763.9672 -7484.0166 298.7275 -9247.9838 -7478.7435 297.6361 139.6639 217.9322 30160.6735 -138.8983 -65.0559
ENERGY: 600000 4.2397 10.2579 5.3897 0.0000 -10718.1647 1450.4478 0.0000 0.0000 1768.3891 -7479.4405 299.4763 -9247.8296 -7478.3452 298.6979 -9.9218 66.5607 30269.0623 -81.4045 -6.1329
ENERGY: 900000 3.3584 9.7907 1.9176 0.0000 -10768.7625 1464.2655 0.0000 0.0000 1794.6842 -7494.7461 303.9294 -9289.4303 -7472.4342 300.1040 -59.3314 56.1798 30334.0909 -102.2568 -34.9342
ENERGY: 1200000 4.9323 8.5841 2.6366 0.0000 -10650.8573 1423.6074 0.0000 0.0000 1822.5951 -7388.5018 308.6561 -9211.0969 -7469.5206 300.9132 36.4978 114.8154 30472.5632 13.3620 76.9369
ENERGY: 1500000 3.3924 5.3908 3.7272 0.0000 -10742.6640 1389.9334 0.0000 0.0000 1757.4308 -7582.7894 297.6205 -9340.2202 -7475.0142 301.0092 -625.8281 -512.4873 30200.5945 26.7590 89.6210
TCL: Running FEP window   5: Lambda1 0.2    Lambda2 0.25   [dLambda 0.04999999999999999]
TCL: Setting parameter firsttimestep to 0
TCL: Setting parameter alchLambda to 0.2
Info: NONBONDED TABLE R-SQUARED SPACING: 0.0625
Info: NONBONDED TABLE SIZE: 705 POINTS
TCL: Setting parameter alchLambda2 to 0.25
Info: NONBONDED TABLE R-SQUARED SPACING: 0.0625
Info: NONBONDED TABLE SIZE: 705 POINTS
TCL: Running for 1500000 steps
ETITLE: TS BOND ANGLE DIHED IMPRP ELECT VDW BOUNDARY MISC KINETIC TOTAL TEMP POTENTIAL TOTALAVG TEMPAVG PRESSURE GPRESSURE VOLUME PRESSAVG GPRESSAVG
ENERGY: 0 3.3924 5.3908 3.7272 0.0000 -10742.6617 1391.0408 0.0000 0.0000 1756.5452 -7582.5653 297.4706 -9339.1105 -7582.5653 297.4706 -604.3963 -502.8993 30200.5945 -604.3963 -502.8993
ENERGY: 300000 2.7768 10.3035 1.5424 0.0000 -10878.8825 1561.6208 0.0000 0.0000 1731.9551 -7570.6840 293.3062 -9302.6391 -7536.8853 297.5124 1026.5235 1091.7837 29927.2570 14.9906 80.3676
ENERGY: 600000 2.0373 5.2402 1.0887 0.0000 -10578.1115 1356.3362 0.0000 0.0000 1726.7293 -7486.6798 292.4212 -9213.4091 -7521.3031 297.0806 -544.4550 -533.3696 30472.5038 -199.4563 -137.4862
ENERGY: 900000 3.4791 7.7057 1.1290 0.0000 -10754.4039 1432.5326 0.0000 0.0000 1792.1358 -7517.4218 303.4978 -9309.5576 -7516.7783 297.9335 -200.8448 -169.3893 30100.3019 -264.6101 -200.7676
ENERGY: 1200000 3.4195 9.5918 3.9756 0.0000 -10656.0476 1393.2053 0.0000 0.0000 1800.5538 -7445.3017 304.9234 -9245.8555 -7517.9268 298.3863 -165.3580 -108.4665 30209.8091 -255.5505 -189.5673
ENERGY: 1500000 2.4272 9.5789 2.6903 0.0000 -10628.8692 1439.1160 0.0000 0.0000 1789.7528 -7385.3039 303.0943 -9175.0568 -7505.4867 299.4032 -47.1201 23.4654 30889.5281 -249.6500 -182.4219
TCL: Running FEP window   6: Lambda1 0.25   Lambda2 0.3    [dLambda 0.04999999999999999]
TCL: Setting parameter firsttimestep to 0
TCL: Setting parameter alchLambda to 0.25
Info: NONBONDED TABLE R-SQUARED SPACING: 0.0625
Info: NONBONDED TABLE SIZE: 705 POINTS
TCL: Setting parameter alchLambda2 to 0.3
Info: NONBONDED TABLE R-SQUARED SPACING: 0.0625
Info: NONBONDED TABLE SIZE: 705 POINTS
TCL: Running for 1500000 steps
ETITLE: TS BOND ANGLE DIHED IMPRP ELECT VDW BOUNDARY MISC KINETIC TOTAL TEMP POTENTIAL TOTALAVG TEMPAVG PRESSURE GPRESSURE VOLUME PRESSAVG GPRESSAVG
ENERGY: 0 2.4272 9.5789 2.6903 0.0000 -10628.8700 1438.5379 0.0000 0.0000 1788.8718 -7386.7640 302.9451 -9175.6358 -7386.7640 302.9451 -61.7131 25.5409 30889.5281 -61.7131 25.5409
ENERGY: 300000 3.2182 7.6269 1.2351 0.0000 -10787.8029 1476.0225 0.0000 0.0000 1756.1136 -7543.5865 297.3975 -9299.7002 -7453.3692 298.9985 351.6753 408.7338 30112.9558 103.9332 167.7610
ENERGY: 600000 2.3022 8.3907 1.4890 0.0000 -10611.5747 1343.1784 0.0000 0.0000 1767.5824 -7488.6320 299.3397 -9256.2144 -7464.4112 299.4975 -907.5079 -821.0591 30365.7830 -36.1666 24.6096
ENERGY: 900000 1.7890 9.8430 4.8062 0.0000 -10717.4450 1464.8272 0.0000 0.0000 1799.3691 -7436.8106 304.7228 -9236.1797 -7474.6168 299.7336 546.4532 660.4052 29947.8719 -82.2918 -24.1319
ENERGY: 1200000 3.0447 8.8122 4.5387 0.0000 -10738.7929 1436.0772 0.0000 0.0000 1786.1774 -7500.1428 302.4888 -9286.3202 -7477.6084 300.1111 -330.7083 -232.9704 30529.6977 -169.0074 -105.9620
ENERGY: 1500000 1.7485 7.7198 3.6820 0.0000 -10792.9955 1447.3818 0.0000 0.0000 1783.7349 -7548.7284 302.0751 -9332.4633 -7487.1379 299.7835 166.6889 210.5308 29892.5014 -137.5434 -76.5473
TCL: Running FEP window   7: Lambda1 0.3    Lambda2 0.35   [dLambda 0.04999999999999999]
TCL: Setting parameter firsttimestep to 0
TCL: Setting parameter alchLambda to 0.3
Info: NONBONDED TABLE R-SQUARED SPACING: 0.0625
Info: NONBONDED TABLE SIZE: 705 POINTS
TCL: Setting parameter alchLambda2 to 0.35
Info: NONBONDED TABLE R-SQUARED SPACING: 0.0625
Info: NONBONDED TABLE SIZE: 705 POINTS
TCL: Running for 1500000 steps
ETITLE: TS BOND ANGLE DIHED IMPRP ELECT VDW BOUNDARY MISC KINETIC TOTAL TEMP POTENTIAL TOTALAVG TEMPAVG PRESSURE GPRESSURE VOLUME PRESSAVG GPRESSAVG
ENERGY: 0 1.7485 7.7198 3.6820 0.0000 -10792.9965 1447.2457 0.0000 0.0000 1782.8736 -7549.7269 301.9293 -9332.6005 -7549.7269 301.9293 117.3192 213.0919 29892.5014 117.3192 213.0919
ENERGY: 300000 5.1154 7.4868 3.2953 0.0000 -10739.8922 1453.4781 0.0000 0.0000 1820.6487 -7449.8678 308.3265 -9270.5166 -7518.4344 301.6499 -126.7077 -63.8025 30711.3162 -90.9508 -2.6107
ENERGY: 600000 1.4398 7.4456 1.6707 0.0000 -10854.5478 1536.4644 0.0000 0.0000 1830.0394 -7477.4880 309.9168 -9307.5274 -7518.8811 301.7045 213.2443 303.2673 31129.3561 -137.7539 -62.8253
ENERGY: 900000 3.0529 5.8690 2.3362 0.0000 -10722.6857 1455.2789 0.0000 0.0000 1765.6768 -7490.4718 299.0170 -9256.1486 -7513.6611 300.5857 -111.6821 -44.7497 30319.3181 -63.4144 8.8414
ENERGY: 1200000 2.8220 8.6590 4.1654 0.0000 -10581.0740 1394.0879 0.0000 0.0000 1835.7367 -7335.6030 310.8816 -9171.3396 -7493.3597 300.9631 47.4018 132.9416 29982.2777 -18.0701 51.9164
ENERGY: 1500000 3.8874 6.2345 3.7762 0.0000 -10798.8198 1517.2626 0.0000 0.0000 1761.0219 -7506.6372 298.2287 -9267.6591 -7493.2206 300.8763 457.2507 550.0379 30147.9948 17.6095 88.4003
TCL: Running FEP window   8: Lambda1 0.35   Lambda2 0.39999999999999997 [dLambda 0.04999999999999999]
TCL: Setting parameter firsttimestep to 0
TCL: Setting parameter alchLambda to 0.35
Info: NONBONDED TABLE R-SQUARED SPACING: 0.0625
Info: NONBONDED TABLE SIZE: 705 POINTS
TCL: Setting parameter alchLambda2 to 0.39999999999999997
Info: NONBONDED TABLE R-SQUARED SPACING: 0.0625
Info: NONBONDED TABLE SIZE: 705 POINTS
TCL: Running for 1500000 steps
ETITLE: TS BOND ANGLE DIHED IMPRP ELECT VDW BOUNDARY MISC KINETIC TOTAL TEMP POTENTIAL TOTALAVG TEMPAVG PRESSURE GPRESSURE VOLUME PRESSAVG GPRESSAVG
ENERGY: 0 3.8874 6.2345 3.7762 0.0000 -10798.8207 1518.7840 0.0000 0.0000 1760.1833 -7505.9553 298.0867 -9266.1386 -7505.9553 298.0867 459.4829 565.4716 30147.9948 459.4829 565.4716
ENERGY: 300000 3.9243 6.2496 4.3148 0.0000 -10965.4713 1581.6775 0.0000 0.0000 1795.9267 -7573.3784 304.1398 -9369.3051 -7508.0726 300.9518 995.5613 1109.1403 30096.7803 719.4418 780.7306
ENERGY: 600000 1.9110 8.6924 2.2392 0.0000 -10622.1359 1390.4869 0.0000 0.0000 1809.7509 -7409.0555 306.4809 -9218.8064 -7492.5149 300.8184 -183.7381 -203.0652 30199.5105 377.1496 427.4699
ENERGY: 900000 0.5508 7.9969 5.0619 0.0000 -10767.3832 1476.5175 0.0000 0.0000 1753.6980 -7523.5582 296.9884 -9277.2562 -7496.9656 299.9532 329.1555 373.8800 30294.4070 290.9767 335.2828
ENERGY: 1200000 1.2969 5.9243 1.1385 0.0000 -10758.6552 1458.4102 0.0000 0.0000 1800.0319 -7491.8533 304.8350 -9291.8852 -7497.9219 299.9001 182.3106 275.9234 30252.9918 233.3248 281.6710
ENERGY: 1500000 1.1873 5.4304 1.8027 0.0000 -10608.7340 1394.8538 0.0000 0.0000 1759.6210 -7445.8387 297.9914 -9205.4597 -7489.6394 300.2064 -364.7437 -275.9644 30401.4695 161.1562 209.3348
TCL: Running FEP window   9: Lambda1 0.39999999999999997 Lambda2 0.44999999999999996 [dLambda 0.04999999999999999]
TCL: Setting parameter firsttimestep to 0
TCL: Setting parameter alchLambda to 0.39999999999999997
Info: NONBONDED TABLE R-SQUARED SPACING: 0.0625
Info: NONBONDED TABLE SIZE: 705 POINTS
TCL: Setting parameter alchLambda2 to 0.44999999999999996
Info: NONBONDED TABLE R-SQUARED SPACING: 0.0625
Info: NONBONDED TABLE SIZE: 705 POINTS
TCL: Running for 1500000 steps
ETITLE: TS BOND ANGLE DIHED IMPRP ELECT VDW BOUNDARY MISC KINETIC TOTAL TEMP POTENTIAL TOTALAVG TEMPAVG PRESSURE GPRESSURE VOLUME PRESSAVG GPRESSAVG
ENERGY: 0 1.1873 5.4304 1.8027 0.0000 -10608.7351 1396.2370 0.0000 0.0000 1758.7361 -7445.3415 297.8416 -9204.0776 -7445.3415 297.8416 -340.3747 -261.2754 30401.4695 -340.3747 -261.2754
ENERGY: 300000 2.2796 5.3584 2.5204 0.0000 -10657.0413 1387.3108 0.0000 0.0000 1818.5877 -7440.9843 307.9774 -9259.5720 -7449.3702 301.7493 -490.1482 -403.1710 30536.8413 -352.6634 -289.3548
ENERGY: 600000 2.6897 6.5475 5.7372 0.0000 -10743.6239 1508.1320 0.0000 0.0000 1810.3510 -7410.1667 306.5825 -9220.5176 -7451.9024 301.5027 682.6042 759.4559 30499.9755 34.4905 93.8193
ENERGY: 900000 8.5173 7.6084 3.8877 0.0000 -10708.6865 1426.7477 0.0000 0.0000 1771.4157 -7490.5096 299.9889 -9261.9254 -7467.4953 300.7145 -247.4641 -117.4072 30445.3277 -24.8931 34.5638
ENERGY: 1200000 6.8042 7.8791 4.4996 0.0000 -10671.9149 1399.8915 0.0000 0.0000 1735.6180 -7517.2225 293.9265 -9252.8405 -7475.1340 300.4973 -741.3724 -653.8056 30778.3842 -137.0541 -73.2151
ENERGY: 1500000 1.7412 8.5511 1.5760 0.0000 -10780.4619 1464.1854 0.0000 0.0000 1724.4573 -7579.9509 292.0365 -9304.4082 -7470.0414 300.1101 -83.9589 3.9471 30510.4691 -92.8541 -24.4089
TCL: Running FEP window  10: Lambda1 0.44999999999999996 Lambda2 0.49999999999999994 [dLambda 0.04999999999999999]
TCL: Setting parameter firsttimestep to 0
TCL: Setting parameter alchLambda to 0.44999999999999996
Info: NONBONDED TABLE R-SQUARED SPACING: 0.0625
Info: NONBONDED TABLE SIZE: 705 POINTS
TCL: Setting parameter alchLambda2 to 0.49999999999999994
Info: NONBONDED TABLE R-SQUARED SPACING: 0.0625
Info: NONBONDED TABLE SIZE: 705 POINTS
TCL: Running for 1500000 steps
ETITLE: TS BOND ANGLE DIHED IMPRP ELECT VDW BOUNDARY MISC KINETIC TOTAL TEMP POTENTIAL TOTALAVG TEMPAVG PRESSURE GPRESSURE VOLUME PRESSAVG GPRESSAVG
ENERGY: 0 1.7412 8.5511 1.5760 0.0000 -10780.4610 1463.5957 0.0000 0.0000 1723.5927 -7581.4043 291.8901 -9304.9970 -7581.4043 291.8901 -95.6205 2.7636 30510.4691 -95.6205 2.7636
ENERGY: 300000 2.1823 5.4207 3.0086 0.0000 -10773.1994 1495.6838 0.0000 0.0000 1756.3744 -7510.5296 297.4416 -9266.9041 -7545.7850 296.3028 369.3720 461.0424 30379.5865 3.4283 102.8003
ENERGY: 600000 3.1699 9.8602 3.8568 0.0000 -10783.6790 1505.0987 0.0000 0.0000 1758.9669 -7502.7264 297.8807 -9261.6933 -7500.9087 300.1138 433.6810 469.1200 30508.2119 -183.4598 -95.0154
ENERGY: 900000 2.4859 5.0477 2.4676 0.0000 -10663.6809 1427.1541 0.0000 0.0000 1749.7117 -7476.8139 296.3133 -9226.5256 -7485.7663 299.6738 -55.0596 -14.7327 30318.4775 -84.7076 -11.9178
ENERGY: 1200000 4.0741 7.2593 2.6553 0.0000 -10874.1563 1534.6377 0.0000 0.0000 1729.1217 -7596.4081 292.8264 -9325.5298 -7492.8378 299.4044 381.7053 446.4777 30450.0580 -109.1239 -37.2513
ENERGY: 1500000 1.5267 7.0076 2.5115 0.0000 -10631.5905 1382.3654 0.0000 0.0000 1729.9368 -7508.2426 292.9644 -9238.1795 -7499.0807 298.8321 -586.6409 -494.7649 30476.4163 -149.1421 -73.5093
TCL: Running FEP window  11: Lambda1 0.49999999999999994 Lambda2 0.5499999999999999 [dLambda 0.04999999999999999]
TCL: Setting parameter firsttimestep to 0
TCL: Setting parameter alchLambda to 0.49999999999999994
Info: NONBONDED TABLE R-SQUARED SPACING: 0.0625
Info: NONBONDED TABLE SIZE: 705 POINTS
TCL: Setting parameter alchLambda2 to 0.5499999999999999
Info: NONBONDED TABLE R-SQUARED SPACING: 0.0625
Info: NONBONDED TABLE SIZE: 705 POINTS
TCL: Running for 1500000 steps
ETITLE: TS BOND ANGLE DIHED IMPRP ELECT VDW BOUNDARY MISC KINETIC TOTAL TEMP POTENTIAL TOTALAVG TEMPAVG PRESSURE GPRESSURE VOLUME PRESSAVG GPRESSAVG
ENERGY: 0 1.5267 7.0076 2.5115 0.0000 -10631.5899 1384.0587 0.0000 0.0000 1729.0732 -7507.4123 292.8182 -9236.4855 -7507.4123 292.8182 -552.5224 -473.5248 30476.4163 -552.5224 -473.5248
ENERGY: 300000 1.4025 7.2834 3.1015 0.0000 -10726.2956 1449.0934 0.0000 0.0000 1737.3458 -7528.0690 294.2191 -9265.4149 -7507.8410 294.7710 73.0393 124.8850 30478.1563 -183.7167 -116.8673
ENERGY: 600000 1.0583 3.6753 4.0591 0.0000 -10747.4322 1439.8106 0.0000 0.0000 1824.8888 -7473.9401 309.0445 -9298.8289 -7490.5187 298.5200 3.6304 88.9784 30382.9442 -297.4248 -241.2083
ENERGY: 900000 2.6871 15.2224 4.2205 0.0000 -10673.4402 1388.8318 0.0000 0.0000 1722.9604 -7539.5181 291.7830 -9262.4785 -7502.7378 297.5328 -757.9331 -646.5017 30770.5411 -281.2934 -222.7729
ENERGY: 1200000 2.3255 8.1145 4.2953 0.0000 -10587.2672 1348.8277 0.0000 0.0000 1769.8167 -7453.8876 299.7181 -9223.7043 -7499.7797 298.1407 -369.8153 -302.2226 30365.1497 -201.6689 -137.4817
ENERGY: 1500000 1.1822 5.4163 1.6246 0.0000 -10684.3898 1441.6489 0.0000 0.0000 1744.5614 -7489.9563 295.4411 -9234.5177 -7499.2072 298.9007 241.1403 328.3074 30244.4415 -90.1506 -25.3679
TCL: Running FEP window  12: Lambda1 0.5499999999999999 Lambda2 0.6    [dLambda 0.050000000000000044]
TCL: Setting parameter firsttimestep to 0
TCL: Setting parameter alchLambda to 0.5499999999999999
Info: NONBONDED TABLE R-SQUARED SPACING: 0.0625
Info: NONBONDED TABLE SIZE: 705 POINTS
TCL: Setting parameter alchLambda2 to 0.6
Info: NONBONDED TABLE R-SQUARED SPACING: 0.0625
Info: NONBONDED TABLE SIZE: 705 POINTS
TCL: Running for 1500000 steps
ETITLE: TS BOND ANGLE DIHED IMPRP ELECT VDW BOUNDARY MISC KINETIC TOTAL TEMP POTENTIAL TOTALAVG TEMPAVG PRESSURE GPRESSURE VOLUME PRESSAVG GPRESSAVG
ENERGY: 0 1.1822 5.4163 1.6246 0.0000 -10684.2133 1441.6774 0.0000 0.0000 1743.6627 -7490.6501 295.2889 -9234.3128 -7490.6501 295.2889 254.2084 334.1430 30244.4415 254.2084 334.1430
ENERGY: 300000 2.5531 8.4679 4.0230 0.0000 -10705.8324 1396.4141 0.0000 0.0000 1752.9787 -7541.3957 296.8666 -9294.3743 -7514.2946 299.2459 -557.3188 -522.6328 30551.4731 60.1085 135.9489
ENERGY: 600000 1.3647 4.7901 3.5870 0.0000 -10777.5644 1484.6290 0.0000 0.0000 1697.7540 -7585.4395 287.5143 -9283.1935 -7530.7611 295.2220 50.9794 130.5632 30703.4128 -25.8809 48.5521
ENERGY: 900000 0.5607 16.7217 1.9708 0.0000 -10712.0107 1448.1726 0.0000 0.0000 1738.3919 -7506.1931 294.3963 -9244.5849 -7523.7874 295.4343 10.8058 95.5628 30583.3838 -103.7049 -35.9227
ENERGY: 1200000 1.5984 6.2052 3.8109 0.0000 -10776.8482 1458.4841 0.0000 0.0000 1784.3300 -7522.4195 302.1759 -9306.7495 -7515.5673 297.1800 -29.5042 -5.6543 30668.3407 -97.6821 -37.2569
ENERGY: 1500000 1.4549 5.7408 1.7179 0.0000 -10721.0728 1430.7529 0.0000 0.0000 1801.4090 -7479.9974 305.0682 -9281.4064 -7499.8215 298.8781 -312.2161 -310.6058 30984.5429 -82.8074 -31.0234
TCL: Running FEP window  13: Lambda1 0.6    Lambda2 0.65   [dLambda 0.050000000000000044]
TCL: Setting parameter firsttimestep to 0
TCL: Setting parameter alchLambda to 0.6
Info: NONBONDED TABLE R-SQUARED SPACING: 0.0625
Info: NONBONDED TABLE SIZE: 705 POINTS
TCL: Setting parameter alchLambda2 to 0.65
Info: NONBONDED TABLE R-SQUARED SPACING: 0.0625
Info: NONBONDED TABLE SIZE: 705 POINTS
TCL: Running for 1500000 steps
ETITLE: TS BOND ANGLE DIHED IMPRP ELECT VDW BOUNDARY MISC KINETIC TOTAL TEMP POTENTIAL TOTALAVG TEMPAVG PRESSURE GPRESSURE VOLUME PRESSAVG GPRESSAVG
ENERGY: 0 1.4549 5.7408 1.7179 0.0000 -10721.1428 1430.7278 0.0000 0.0000 1800.5664 -7480.9350 304.9255 -9281.5015 -7480.9350 304.9255 -387.0050 -302.7495 30984.5429 -387.0050 -302.7495
ENERGY: 300000 2.1983 4.0679 2.9319 0.0000 -10656.5805 1375.7920 0.0000 0.0000 1790.1177 -7481.4726 303.1561 -9271.5904 -7476.0272 303.2367 -515.4111 -461.4642 30444.0024 -490.7179 -450.7055
ENERGY: 600000 1.7424 8.4545 5.3041 0.0000 -10782.6834 1461.0879 0.0000 0.0000 1765.1125 -7540.9820 298.9214 -9306.0944 -7489.4018 302.0517 155.7134 151.0398 30454.3929 -345.4522 -322.9319
ENERGY: 900000 2.3636 6.9360 1.9643 0.0000 -10739.6231 1447.8982 0.0000 0.0000 1782.1997 -7498.2613 301.8151 -9280.4611 -7487.5244 301.2049 245.0900 311.4208 30118.5491 -120.5261 -89.7302
ENERGY: 1200000 2.7038 8.0999 5.2143 0.0000 -10736.1066 1500.9107 0.0000 0.0000 1775.7223 -7443.4557 300.7182 -9219.1780 -7488.8811 301.8472 365.5839 443.7160 30752.8904 -95.8815 -48.4995
ENERGY: 1500000 0.9409 7.8483 4.0215 0.0000 -10612.4343 1346.5559 0.0000 0.0000 1731.5659 -7521.5018 293.2403 -9253.0678 -7489.3783 301.6566 -972.2319 -906.3732 31197.4966 -255.9707 -207.1045
TCL: Running FEP window  14: Lambda1 0.65   Lambda2 0.7000000000000001 [dLambda 0.050000000000000044]
TCL: Setting parameter firsttimestep to 0
TCL: Setting parameter alchLambda to 0.65
Info: NONBONDED TABLE R-SQUARED SPACING: 0.0625
Info: NONBONDED TABLE SIZE: 705 POINTS
TCL: Setting parameter alchLambda2 to 0.7000000000000001
Info: NONBONDED TABLE R-SQUARED SPACING: 0.0625
Info: NONBONDED TABLE SIZE: 705 POINTS
TCL: Running for 1500000 steps
ETITLE: TS BOND ANGLE DIHED IMPRP ELECT VDW BOUNDARY MISC KINETIC TOTAL TEMP POTENTIAL TOTALAVG TEMPAVG PRESSURE GPRESSURE VOLUME PRESSAVG GPRESSAVG
ENERGY: 0 0.9409 7.8483 4.0215 0.0000 -10612.3273 1346.7030 0.0000 0.0000 1730.6882 -7522.1255 293.0917 -9252.8136 -7522.1255 293.0917 -981.3010 -894.3796 31197.4966 -981.3010 -894.3796
ENERGY: 300000 4.7165 8.3043 3.2725 0.0000 -10589.7371 1395.2944 0.0000 0.0000 1789.8843 -7388.2650 303.1165 -9178.1493 -7450.2060 300.9545 -211.1394 -144.5253 30672.9857 -536.9830 -435.2017
ENERGY: 600000 2.9316 4.2771 2.8392 0.0000 -10735.6720 1427.7479 0.0000 0.0000 1723.5813 -7574.2948 291.8881 -9297.8761 -7490.2855 299.5815 -150.5556 -8.5121 30418.4929 -331.3385 -245.8125
ENERGY: 900000 4.5660 7.4569 1.4988 0.0000 -10654.4918 1415.0940 0.0000 0.0000 1808.0715 -7417.8045 306.1965 -9225.8760 -7478.2022 300.8628 -84.2177 2.3613 30436.3512 -347.5245 -269.5400
ENERGY: 1200000 4.7971 9.5756 3.1726 0.0000 -10547.4814 1380.2521 0.0000 0.0000 1805.1642 -7344.5199 305.7042 -9149.6841 -7473.6938 300.5921 -208.3919 -157.7910 30686.1963 -274.0678 -195.8913
ENERGY: 1500000 2.3309 11.5355 4.4230 0.0000 -10704.2718 1402.8327 0.0000 0.0000 1775.5185 -7507.6313 300.6837 -9283.1497 -7472.2373 301.0995 -259.9441 -199.9881 30422.3779 -228.9097 -157.7037
TCL: Running FEP window  15: Lambda1 0.7000000000000001 Lambda2 0.7500000000000001 [dLambda 0.050000000000000044]
TCL: Setting parameter firsttimestep to 0
TCL: Setting parameter alchLambda to 0.7000000000000001
Info: NONBONDED TABLE R-SQUARED SPACING: 0.0625
Info: NONBONDED TABLE SIZE: 705 POINTS
TCL: Setting parameter alchLambda2 to 0.7500000000000001
Info: NONBONDED TABLE R-SQUARED SPACING: 0.0625
Info: NONBONDED TABLE SIZE: 705 POINTS
TCL: Running for 1500000 steps
ETITLE: TS BOND ANGLE DIHED IMPRP ELECT VDW BOUNDARY MISC KINETIC TOTAL TEMP POTENTIAL TOTALAVG TEMPAVG PRESSURE GPRESSURE VOLUME PRESSAVG GPRESSAVG
ENERGY: 0 2.3309 11.5355 4.4230 0.0000 -10704.7076 1402.5757 0.0000 0.0000 1774.6563 -7509.1863 300.5377 -9283.8426 -7509.1863 300.5377 -297.7478 -193.5676 30422.3779 -297.7478 -193.5676
ENERGY: 300000 6.2929 6.0028 3.3132 0.0000 -10874.6644 1549.4903 0.0000 0.0000 1796.5415 -7513.0237 304.2439 -9309.5652 -7486.3937 302.1263 464.6549 516.7243 30842.3375 224.1972 276.6981
ENERGY: 600000 4.4939 11.7453 2.3097 0.0000 -10526.3276 1306.6430 0.0000 0.0000 1721.3286 -7479.8071 291.5066 -9201.1357 -7480.9058 302.3912 -1028.7969 -944.7819 30679.9942 -74.4492 -23.3200
ENERGY: 900000 7.2163 8.8066 3.6461 0.0000 -10595.2616 1402.8294 0.0000 0.0000 1715.3079 -7457.4553 290.4870 -9172.7632 -7494.5244 300.5933 -140.3583 -121.0684 30695.3955 -99.3214 -53.7989
ENERGY: 1200000 2.3592 8.1868 3.7039 0.0000 -10718.3848 1448.1708 0.0000 0.0000 1772.7804 -7483.1837 300.2200 -9255.9641 -7496.2878 299.8146 -177.3210 -68.0718 30456.4740 -62.0978 -18.1985
ENERGY: 1500000 5.3160 7.8023 1.9755 0.0000 -10793.8312 1482.1747 0.0000 0.0000 1779.1404 -7517.4223 301.2970 -9296.5627 -7497.3290 299.1526 93.4239 239.0154 30343.2285 -45.1960 2.2267
TCL: Running FEP window  16: Lambda1 0.7500000000000001 Lambda2 0.8000000000000002 [dLambda 0.050000000000000044]
TCL: Setting parameter firsttimestep to 0
TCL: Setting parameter alchLambda to 0.7500000000000001
Info: NONBONDED TABLE R-SQUARED SPACING: 0.0625
Info: NONBONDED TABLE SIZE: 705 POINTS
TCL: Setting parameter alchLambda2 to 0.8000000000000002
Info: NONBONDED TABLE R-SQUARED SPACING: 0.0625
Info: NONBONDED TABLE SIZE: 705 POINTS
TCL: Running for 1500000 steps
ETITLE: TS BOND ANGLE DIHED IMPRP ELECT VDW BOUNDARY MISC KINETIC TOTAL TEMP POTENTIAL TOTALAVG TEMPAVG PRESSURE GPRESSURE VOLUME PRESSAVG GPRESSAVG
ENERGY: 0 5.3160 7.8023 1.9755 0.0000 -10794.0585 1481.7841 0.0000 0.0000 1778.2565 -7518.9242 301.1474 -9297.1807 -7518.9242 301.1474 175.6615 242.6557 30343.2285 175.6615 242.6557
ENERGY: 300000 2.0776 8.6715 3.1846 0.0000 -10697.0967 1436.2253 0.0000 0.0000 1800.6164 -7446.3212 304.9340 -9246.9376 -7453.3662 302.6704 249.9282 267.8858 30622.3876 345.5579 424.7957
ENERGY: 600000 3.2360 8.8574 2.1259 0.0000 -10821.7383 1469.6989 0.0000 0.0000 1775.3231 -7562.4970 300.6506 -9337.8201 -7471.3608 301.2785 -20.8364 46.3956 30590.5276 193.6360 267.2123
ENERGY: 900000 2.0600 6.1348 3.0397 0.0000 -10609.1433 1376.1405 0.0000 0.0000 1790.1529 -7431.6154 303.1620 -9221.7683 -7463.9384 300.7111 -447.0854 -482.5611 30880.7072 96.5863 154.0701
ENERGY: 1200000 7.0232 6.8731 4.1612 0.0000 -10793.7603 1447.1197 0.0000 0.0000 1793.9149 -7534.6682 303.7991 -9328.5831 -7472.2552 300.2940 106.1729 169.1925 30055.6552 6.9998 54.1036
ENERGY: 1500000 1.5576 11.0454 4.9506 0.0000 -10764.8573 1463.6401 0.0000 0.0000 1792.4276 -7491.2360 303.5472 -9283.6636 -7467.3955 300.2990 123.5534 214.0510 30356.3366 -5.6425 54.6753
TCL: Running FEP window  17: Lambda1 0.8000000000000002 Lambda2 0.8500000000000002 [dLambda 0.050000000000000044]
TCL: Setting parameter firsttimestep to 0
TCL: Setting parameter alchLambda to 0.8000000000000002
Info: NONBONDED TABLE R-SQUARED SPACING: 0.0625
Info: NONBONDED TABLE SIZE: 705 POINTS
TCL: Setting parameter alchLambda2 to 0.8500000000000002
Info: NONBONDED TABLE R-SQUARED SPACING: 0.0625
Info: NONBONDED TABLE SIZE: 705 POINTS
TCL: Running for 1500000 steps
ETITLE: TS BOND ANGLE DIHED IMPRP ELECT VDW BOUNDARY MISC KINETIC TOTAL TEMP POTENTIAL TOTALAVG TEMPAVG PRESSURE GPRESSURE VOLUME PRESSAVG GPRESSAVG
ENERGY: 0 1.5576 11.0454 4.9506 0.0000 -10765.3129 1463.9650 0.0000 0.0000 1791.5258 -7492.2686 303.3945 -9283.7944 -7492.2686 303.3945 149.7281 230.6228 30356.3366 149.7281 230.6228
ENERGY: 300000 4.4540 12.5675 2.4874 0.0000 -10830.5576 1501.5842 0.0000 0.0000 1774.2414 -7535.2230 300.4674 -9309.4645 -7487.5740 301.9971 424.3391 510.4298 30105.1075 360.2336 441.6333
ENERGY: 600000 3.3471 6.9423 4.3141 0.0000 -10680.2403 1388.9672 0.0000 0.0000 1789.4495 -7487.2202 303.0429 -9276.6697 -7500.9613 300.8477 -372.2360 -355.9091 30753.7580 130.8514 192.1966
ENERGY: 900000 2.1156 5.7945 1.3014 0.0000 -10730.9887 1420.4573 0.0000 0.0000 1736.3023 -7565.0177 294.0424 -9301.3200 -7499.6266 300.2015 -236.8175 -171.3333 30654.4628 -140.3762 -86.5575
ENERGY: 1200000 3.5283 9.2007 2.7321 0.0000 -10662.6445 1407.6767 0.0000 0.0000 1768.1671 -7471.3394 299.4387 -9239.5065 -7497.7479 301.4974 -118.4869 -29.0740 30346.9781 -102.4461 -45.8454
ENERGY: 1500000 5.2365 4.8200 1.4911 0.0000 -10674.0774 1413.7069 0.0000 0.0000 1756.5506 -7492.2724 297.4715 -9248.8230 -7492.5995 301.6070 -425.4373 -326.4679 30788.2730 -95.0566 -31.8115
TCL: Running FEP window  18: Lambda1 0.8500000000000002 Lambda2 0.9000000000000002 [dLambda 0.050000000000000044]
TCL: Setting parameter firsttimestep to 0
TCL: Setting parameter alchLambda to 0.8500000000000002
Info: NONBONDED TABLE R-SQUARED SPACING: 0.0625
Info: NONBONDED TABLE SIZE: 705 POINTS
TCL: Setting parameter alchLambda2 to 0.9000000000000002
Info: NONBONDED TABLE R-SQUARED SPACING: 0.0625
Info: NONBONDED TABLE SIZE: 705 POINTS
TCL: Running for 1500000 steps
ETITLE: TS BOND ANGLE DIHED IMPRP ELECT VDW BOUNDARY MISC KINETIC TOTAL TEMP POTENTIAL TOTALAVG TEMPAVG PRESSURE GPRESSURE VOLUME PRESSAVG GPRESSAVG
ENERGY: 0 5.2365 4.8200 1.4911 0.0000 -10674.4613 1414.9079 0.0000 0.0000 1755.6931 -7492.3127 297.3262 -9248.0058 -7492.3127 297.3262 -385.9306 -302.1846 30788.2730 -385.9306 -302.1846
ENERGY: 300000 4.6019 5.4268 4.0054 0.0000 -10703.0919 1441.0254 0.0000 0.0000 1745.4609 -7502.5716 295.5934 -9248.0324 -7498.7562 298.2852 -232.8276 -106.5262 30880.8903 -500.0439 -417.9393
ENERGY: 600000 5.3145 5.7846 4.1600 0.0000 -10773.6006 1475.1251 0.0000 0.0000 1762.6537 -7520.5627 298.5050 -9283.2164 -7470.7283 299.9469 -83.7849 -38.7605 30870.6385 -419.6877 -336.3160
ENERGY: 900000 6.2112 7.3665 4.6058 0.0000 -10741.8009 1430.3150 0.0000 0.0000 1776.7611 -7516.5414 300.8941 -9293.3024 -7466.2308 301.4430 -319.3520 -278.9460 30682.9924 -400.2704 -317.7462
ENERGY: 1200000 2.2427 8.3032 0.7551 0.0000 -10713.9739 1445.6434 0.0000 0.0000 1772.3029 -7484.7266 300.1391 -9257.0294 -7478.7704 300.5795 24.5828 113.5094 30680.1828 -396.0462 -322.9774
ENERGY: 1500000 1.7349 4.9675 3.0652 0.0000 -10655.3342 1464.5928 0.0000 0.0000 1727.3972 -7453.5767 292.5343 -9180.9738 -7487.8306 299.0746 171.6352 253.4866 31305.6860 -285.9207 -209.6096
TCL: Running FEP window  19: Lambda1 0.9000000000000002 Lambda2 0.9500000000000003 [dLambda 0.050000000000000044]
TCL: Setting parameter firsttimestep to 0
TCL: Setting parameter alchLambda to 0.9000000000000002
Info: NONBONDED TABLE R-SQUARED SPACING: 0.0625
Info: NONBONDED TABLE SIZE: 705 POINTS
TCL: Setting parameter alchLambda2 to 0.9500000000000003
Info: NONBONDED TABLE R-SQUARED SPACING: 0.0625
Info: NONBONDED TABLE SIZE: 705 POINTS
TCL: Running for 1500000 steps
ETITLE: TS BOND ANGLE DIHED IMPRP ELECT VDW BOUNDARY MISC KINETIC TOTAL TEMP POTENTIAL TOTALAVG TEMPAVG PRESSURE GPRESSURE VOLUME PRESSAVG GPRESSAVG
ENERGY: 0 1.7349 4.9675 3.0652 0.0000 -10655.6828 1464.2094 0.0000 0.0000 1726.4989 -7455.2069 292.3822 -9181.7058 -7455.2069 292.3822 179.2533 259.5374 31305.6860 179.2533 259.5374
ENERGY: 300000 5.2673 5.8064 5.1998 0.0000 -10493.2606 1392.2808 0.0000 0.0000 1759.4064 -7325.3000 297.9551 -9084.7063 -7467.0729 295.7130 -55.0269 17.7333 30979.6220 72.9721 168.1519
ENERGY: 600000 2.1120 6.6408 2.2871 0.0000 -10814.7861 1538.9940 0.0000 0.0000 1775.2670 -7489.4851 300.6411 -9264.7521 -7488.4154 298.1903 957.8512 1051.7430 30035.4783 -103.4236 -31.6475
ENERGY: 900000 2.4642 6.0346 2.7982 0.0000 -10811.5745 1490.4908 0.0000 0.0000 1781.3121 -7528.4746 301.6648 -9309.7867 -7494.4607 298.7117 329.6212 429.5808 30226.1049 -124.0331 -47.0041
ENERGY: 1200000 5.8122 10.6168 3.0036 0.0000 -10682.1177 1384.8059 0.0000 0.0000 1783.0544 -7494.8248 301.9599 -9277.8792 -7487.0648 298.7947 -713.8581 -664.2969 30929.1455 -91.6439 -22.3850
ENERGY: 1500000 3.0233 6.6868 6.0146 0.0000 -10556.5908 1340.3363 0.0000 0.0000 1764.3056 -7436.2243 298.7848 -9200.5299 -7481.5924 299.4218 -592.0977 -547.6325 30748.9818 -33.7534 29.8219
TCL: Running FEP window  20: Lambda1 0.9500000000000003 Lambda2 1.0    [dLambda 0.04999999999999971]
TCL: Setting parameter firsttimestep to 0
TCL: Setting parameter alchLambda to 0.9500000000000003
Info: NONBONDED TABLE R-SQUARED SPACING: 0.0625
Info: NONBONDED TABLE SIZE: 705 POINTS
TCL: Setting parameter alchLambda2 to 1.0
Info: NONBONDED TABLE R-SQUARED SPACING: 0.0625
Info: NONBONDED TABLE SIZE: 705 POINTS
TCL: Running for 1500000 steps
ETITLE: TS BOND ANGLE DIHED IMPRP ELECT VDW BOUNDARY MISC KINETIC TOTAL TEMP POTENTIAL TOTALAVG TEMPAVG PRESSURE GPRESSURE VOLUME PRESSAVG GPRESSAVG
ENERGY: 0 3.0233 6.6868 6.0146 0.0000 -10557.2849 1339.9497 0.0000 0.0000 1763.4254 -7438.1851 298.6357 -9201.6105 -7438.1851 298.6357 -626.2614 -542.2459 30748.9818 -626.2614 -542.2459
ENERGY: 300000 1.7028 7.9480 4.3340 0.0000 -10639.0981 1417.2044 0.0000 0.0000 1786.2716 -7421.6372 302.5047 -9207.9088 -7447.9431 302.4068 -103.6984 11.6282 30624.9712 -58.4437 16.5400
ENERGY: 600000 1.4162 11.3487 1.0891 0.0000 -10758.6118 1450.1672 0.0000 0.0000 1798.4952 -7496.0955 304.5748 -9294.5906 -7475.8621 301.2295 307.7513 361.3361 30270.0547 -51.4937 12.4748
ENERGY: 900000 1.8185 8.3834 2.2442 0.0000 -10691.6200 1398.9849 0.0000 0.0000 1765.1299 -7515.0592 298.9244 -9280.1891 -7489.3136 300.0660 -63.6909 33.2699 30218.4958 25.6748 97.2151
ENERGY: 1200000 2.6064 7.4340 7.1959 0.0000 -10579.0965 1355.9369 0.0000 0.0000 1813.0804 -7392.8428 307.0448 -9205.9233 -7487.5998 300.6731 -332.6720 -323.5620 30665.3311 -77.0104 -11.3462
ENERGY: 1500000 3.9025 5.7110 3.2295 0.0000 -10654.1228 1358.1648 0.0000 0.0000 1760.2804 -7522.8345 298.1031 -9283.1149 -7501.7013 300.2732 -940.6393 -910.6096 30964.2716 -139.2655 -74.4899
TCL: Exiting due to exit command.
