Info: SIMULATION PARAMETERS:
Info: TIMESTEP               2
Info: NUMBER OF STEPS        0
Info: STEPS PER CYCLE        10
Info: PERIODIC CELL BASIS 1  31.6131 0 0
Info: PERIODIC CELL BASIS 2  0 28.3259 0
Info: PERIODIC CELL BASIS 3  0 0 33.8055
Info: PERIODIC CELL CENTER   0 0 0
Info: WRAPPING WATERS AROUND PERIODIC BOUNDARIES ON OUTPUT.
Info: WRAPPING ALL CLUSTERS AROUND PERIODIC BOUNDARIES ON OUTPUT.
Info: FIRST LDB TIMESTEP     50
Info: LAST LDB TIMESTEP     -1
Info: HOM BACKGROUND SCALING 1
Info: PME BACKGROUND SCALING 1
Info: MIN ATOMS PER PATCH    40
Info: EMPTY PATCH LOAD       40 ATOMS
Info: VELOCITY FILE          mobley_2341732_equil.vel
Info: CENTER OF MASS MOVING INITIALLY? NO
Info: DIELECTRIC             1
Info: EXCLUDE                SCALED ONE-FOUR
Info: 1-4 ELECTROSTATICS SCALED BY 0.833333
Info: MODIFIED 1-4 VDW PARAMETERS WILL BE USED
Info: DCD FILENAME           mobley_2341732_prod.dcd
Info: DCD FREQUENCY          100000
Info: DCD FIRST STEP         100000
Info: DCD FILE WILL CONTAIN UNIT CELL DATA
Info: XST FILENAME           mobley_2341732_prod.xst
Info: XST FREQUENCY          100000
Info: NO VELOCITY DCD OUTPUT
Info: NO FORCE DCD OUTPUT
Info: OUTPUT FILENAME        mobley_2341732_prod
Info: BINARY OUTPUT FILES WILL BE USED
Info: RESTART FILENAME       mobley_2341732_prod.restart
Info: RESTART FREQUENCY      100000
Info: BINARY RESTART FILES WILL BE USED
Info: CUTOFF                 9
Info: PAIRLIST DISTANCE      11
Info: PAIRLIST SHRINK RATE   0.01
Info: PAIRLIST GROW RATE     0.01
Info: PAIRLIST TRIGGER       0.3
Info: PAIRLISTS PER CYCLE    2
Info: PAIRLISTS ENABLED
Info: MARGIN                 2
Info: HYDROGEN GROUP CUTOFF  2.5
Info: PATCH DIMENSION        15.5
Info: ENERGY OUTPUT STEPS    100000
Info: ENERGY EVALUATION STEPS    100000
Info: OUTPUT ENERGY PRECISION 4
Info: CROSSTERM ENERGY INCLUDED IN DIHEDRAL
Info: TIMING OUTPUT STEPS    1000000
Info: PRESSURE OUTPUT STEPS  100000
Info: ALCHEMICAL FEP ON
Info: FEP CURRENT LAMBDA VALUE     0
Info: FEP COMPARISON LAMBDA VALUE  0.05
Info: FEP INTRA-ALCHEMICAL NON-BONDED INTERACTIONS WILL BE RETAINED
Info: FEP INTRA-ALCHEMICAL BONDED INTERACTIONS WILL BE RETAINED
Info: FEP VDW SHIFTING COEFFICIENT 5
Info: FEP ELEC. ACTIVE FOR ANNIHILATED PARTICLES BETWEEN LAMBDA = 0 AND LAMBDA = 0.5
Info: FEP ELEC. ACTIVE FOR EXNIHILATED PARTICLES BETWEEN LAMBDA = 0.5 AND LAMBDA = 1
Info: FEP VDW ACTIVE FOR ANNIHILATED PARTICLES BETWEEN LAMBDA = 0 AND LAMBDA = 1
Info: FEP VDW ACTIVE FOR EXNIHILATED PARTICLES BETWEEN LAMBDA = 0 AND LAMBDA = 1
Info: FEP BOND ACTIVE FOR ANNIHILATED PARTICLES BETWEEN LAMBDA = 1 AND LAMBDA = 1
Info: FEP BOND ACTIVE FOR EXNIHILATED PARTICLES BETWEEN LAMBDA = 0 AND LAMBDA = 0
Info: LANGEVIN DYNAMICS ACTIVE
Info: LANGEVIN TEMPERATURE   300
Info: LANGEVIN USING BBK INTEGRATOR
Info: LANGEVIN DAMPING COEFFICIENT IS 1 INVERSE PS
Info: LANGEVIN DYNAMICS APPLIED TO HYDROGENS
Info: LANGEVIN PISTON PRESSURE CONTROL ACTIVE
Info:        TARGET PRESSURE IS 1.01325 BAR
Info:     OSCILLATION PERIOD IS 50 FS
Info:             DECAY TIME IS 25 FS
Info:     PISTON TEMPERATURE IS 300 K
Info:       PRESSURE CONTROL IS GROUP-BASED
Info:    INITIAL STRAIN RATE IS -0.00025709 -0.00025709 -0.00025709
Info:       CELL FLUCTUATION IS ISOTROPIC
Info: PARTICLE MESH EWALD (PME) ACTIVE
Info: PME TOLERANCE               1e-06
Info: PME EWALD COEFFICIENT       0.348832
Info: PME INTERPOLATION ORDER     4
Info: PME GRID DIMENSIONS         32 32 36
Info: PME MAXIMUM GRID SPACING    1
Info: PME CALCULATION WILL BE PERFORMED ON GPU
Info: FULL ELECTROSTATIC EVALUATION FREQUENCY      2
Info: USING VERLET I (r-RESPA) MTS SCHEME.
Info: C1 SPLITTING OF LONG RANGE ELECTROSTATICS
Info: PLACING ATOMS IN PATCHES BY HYDROGEN GROUPS
Info: RIGID BONDS TO HYDROGEN : ALL
Info:         ERROR TOLERANCE : 1e-08
Info:          MAX ITERATIONS : 100
Info: RIGID WATER USING SETTLE ALGORITHM
Info: RANDOM NUMBER SEED     1743923943
Info: USE HYDROGEN BONDS?    NO
Info: Using AMBER format force field!
Info: AMBER PARM FILE        mobley_2341732.prmtop
Info: COORDINATE PDB         mobley_2341732.pdb
Info: Exclusions will be read from PARM file!
Info: SCNB (VDW SCALING)     2
Info: USING ARITHMETIC MEAN TO COMBINE L-J SIGMA PARAMETERS
Info: BINARY COORDINATES     mobley_2341732_equil.coor
Info: SUMMARY OF PARAMETERS:
Info: 9 BONDS
Info: 11 ANGLES
Info:   11 HARMONIC
Info:   0 COSINE-BASED
Info: 16 DIHEDRAL
Info: 0 IMPROPER
Info: 0 CROSSTERM
Info: 0 VDW
Info: 36 VDW_PAIRS
Info: 0 NBTHOLE_PAIRS
Info: To read alchdata from file: mobley_2341732.pdb
Info: To read alchflag data from column: 5
Info: STRUCTURE SUMMARY:
Info: 2960 ATOMS
Info: 2959 BONDS
Info: 34 ANGLES
Info: 48 DIHEDRALS
Info: 0 IMPROPERS
Info: 0 CROSSTERMS
Info: 3031 EXCLUSIONS
Info: 2952 RIGID BONDS
Info: ALCH: 0 ATOMS TO DISAPPEAR IN FINAL STATE
Info: ALCH: 20 ATOMS TO APPEAR IN FINAL STATE
Info: 5928 DEGREES OF FREEDOM
Info: 988 HYDROGEN GROUPS
Info: 4 ATOMS IN LARGEST HYDROGEN GROUP
Info: 988 MIGRATION GROUPS
Info: 4 ATOMS IN LARGEST MIGRATION GROUP
Info: TOTAL MASS = 17771.8 amu
Info: TOTAL CHARGE = -9.99682e-05 e
Info: MASS DENSITY = 0.974885 g/cm^3
Info: ATOM DENSITY = 0.0977808 atoms/A^3
Info: ADDED 0 IMPLICIT EXCLUSIONS
Info: NONBONDED TABLE R-SQUARED SPACING: 0.0625
Info: NONBONDED TABLE SIZE: 705 POINTS
Info: REMOVING COM VELOCITY -0.171373 0.20741 -0.0687498
Info: Use 3D box decompostion in PME FFT.
Info: Updated CUDA force table with 4096 elements.
Info: Updated CUDA LJ table with 8 x 8 elements.
Info: Found 23 unique exclusion lists needing 64 bytes
TCL: Running for 1500000 steps
ETITLE: TS BOND ANGLE DIHED IMPRP ELECT VDW BOUNDARY MISC KINETIC TOTAL TEMP POTENTIAL TOTALAVG TEMPAVG PRESSURE GPRESSURE VOLUME PRESSAVG GPRESSAVG
ENERGY: 0 2.6672 5.4156 2.9599 0.0000 -10702.5137 1478.8996 0.0000 0.0000 1758.0012 -7454.5700 298.4705 -9212.5713 -7454.5700 298.4705 258.4123 348.1000 30271.7883 258.4123 348.1000
ENERGY: 300000 2.2135 12.1021 3.0637 0.0000 -10785.1564 1436.7384 0.0000 0.0000 1747.0516 -7583.9870 296.6115 -9331.0387 -7497.4199 304.3107 -164.4211 -124.7131 30293.8478 179.8981 226.3335
ENERGY: 600000 2.4060 10.1044 3.6366 0.0000 -10642.8979 1482.5222 0.0000 0.0000 1800.0507 -7344.1780 305.6096 -9144.2287 -7491.3859 302.5677 343.1395 365.0874 31020.8401 258.3617 294.8390
ENERGY: 900000 0.3549 14.6810 4.6061 0.0000 -10601.0076 1353.8291 0.0000 0.0000 1752.7159 -7474.8205 297.5731 -9227.5365 -7486.0414 302.5079 -617.5134 -516.0206 30407.8126 74.7862 128.5812
ENERGY: 1200000 2.7456 5.8940 2.4115 0.0000 -10662.1398 1391.6869 0.0000 0.0000 1725.0318 -7534.3699 292.8730 -9259.4017 -7479.5493 302.3995 -443.0060 -403.0812 30432.5181 20.7421 70.4582
ENERGY: 1500000 6.6071 11.2354 6.5343 0.0000 -10835.2948 1466.2465 0.0000 0.0000 1762.2805 -7582.3910 299.1970 -9344.6715 -7486.3602 302.1902 -353.4325 -305.4638 30421.8930 -17.8281 36.8730
TCL: Running FEP window   2: Lambda1 0.05   Lambda2 0.1    [dLambda 0.05  ]
TCL: Setting parameter firsttimestep to 0
TCL: Setting parameter alchLambda to 0.05
Info: NONBONDED TABLE R-SQUARED SPACING: 0.0625
Info: NONBONDED TABLE SIZE: 705 POINTS
TCL: Setting parameter alchLambda2 to 0.1
Info: NONBONDED TABLE R-SQUARED SPACING: 0.0625
Info: NONBONDED TABLE SIZE: 705 POINTS
TCL: Running for 1500000 steps
ETITLE: TS BOND ANGLE DIHED IMPRP ELECT VDW BOUNDARY MISC KINETIC TOTAL TEMP POTENTIAL TOTALAVG TEMPAVG PRESSURE GPRESSURE VOLUME PRESSAVG GPRESSAVG
ENERGY: 0 6.6071 11.2354 6.5343 0.0000 -10835.2940 1469.4684 0.0000 0.0000 1761.3712 -7580.0777 299.0426 -9341.4489 -7580.0777 299.0426 -398.1214 -303.1229 30421.8930 -398.1214 -303.1229
ENERGY: 300000 0.5040 7.1050 3.2659 0.0000 -11082.5792 1647.4883 0.0000 0.0000 1754.1071 -7670.1089 297.8093 -9424.2159 -7564.1832 297.1321 1292.8633 1376.3887 29621.6664 35.6432 102.1964
ENERGY: 600000 1.9563 7.9291 2.2125 0.0000 -10834.8947 1511.4169 0.0000 0.0000 1800.1621 -7511.2179 305.6285 -9311.3800 -7531.8913 298.1418 523.4279 565.8882 30199.2463 94.8770 156.6619
ENERGY: 900000 3.3005 11.6980 2.3573 0.0000 -10794.2845 1494.0789 0.0000 0.0000 1741.5797 -7541.2702 295.6824 -9282.8498 -7524.1712 298.6255 273.8455 308.5396 30460.4928 65.2822 114.0605
ENERGY: 1200000 1.8628 16.9343 4.4553 0.0000 -10706.4947 1378.6659 0.0000 0.0000 1742.2550 -7562.3215 295.7971 -9304.5765 -7524.5530 299.4598 -793.9519 -691.0295 30268.1772 -69.8382 -11.8156
ENERGY: 1500000 4.3916 16.5399 4.0282 0.0000 -10682.2936 1406.4346 0.0000 0.0000 1718.8041 -7532.0952 291.8156 -9250.8994 -7517.9354 298.8456 -357.2742 -353.9001 30472.8984 -156.1860 -102.4949
TCL: Running FEP window   3: Lambda1 0.1    Lambda2 0.15000000000000002 [dLambda 0.05000000000000002]
TCL: Setting parameter firsttimestep to 0
TCL: Setting parameter alchLambda to 0.1
Info: NONBONDED TABLE R-SQUARED SPACING: 0.0625
Info: NONBONDED TABLE SIZE: 705 POINTS
TCL: Setting parameter alchLambda2 to 0.15000000000000002
Info: NONBONDED TABLE R-SQUARED SPACING: 0.0625
Info: NONBONDED TABLE SIZE: 705 POINTS
TCL: Running for 1500000 steps
ETITLE: TS BOND ANGLE DIHED IMPRP ELECT VDW BOUNDARY MISC KINETIC TOTAL TEMP POTENTIAL TOTALAVG TEMPAVG PRESSURE GPRESSURE VOLUME PRESSAVG GPRESSAVG
ENERGY: 0 4.3916 16.5399 4.0282 0.0000 -10682.2949 1408.7094 0.0000 0.0000 1717.9298 -7530.6961 291.6672 -9248.6258 -7530.6961 291.6672 -421.3476 -345.4500 30472.8984 -421.3476 -345.4500
ENERGY: 300000 2.1912 12.4244 3.5981 0.0000 -10673.7318 1426.2977 0.0000 0.0000 1738.1835 -7491.0369 295.1058 -9229.2204 -7502.9320 298.7170 -100.6233 31.1603 30247.8316 -86.0773 5.1480
ENERGY: 600000 3.0002 13.5180 3.0027 0.0000 -10655.9295 1383.9427 0.0000 0.0000 1756.3096 -7496.1562 298.1833 -9252.4658 -7529.8224 296.3510 -238.3881 -150.1894 29933.3357 -176.8203 -82.8433
ENERGY: 900000 0.6915 9.9270 3.8505 0.0000 -10607.8857 1309.5724 0.0000 0.0000 1768.6276 -7515.2167 300.2746 -9283.8444 -7512.9588 297.8265 -1385.7229 -1352.1653 30746.4692 -265.2379 -183.1447
ENERGY: 1200000 2.0439 7.7231 2.6361 0.0000 -10850.6147 1546.6184 0.0000 0.0000 1765.4828 -7526.1104 299.7407 -9291.5932 -7515.3692 298.0968 842.4215 980.2021 29732.4297 -114.6030 -27.5300
ENERGY: 1500000 2.1495 8.0863 3.9637 0.0000 -10737.1025 1398.6994 0.0000 0.0000 1734.1757 -7590.0279 294.4254 -9324.2035 -7519.7171 297.0729 -611.1148 -527.1919 30076.6609 -216.9195 -123.5312
TCL: Running FEP window   4: Lambda1 0.15000000000000002 Lambda2 0.2    [dLambda 0.04999999999999999]
TCL: Setting parameter firsttimestep to 0
TCL: Setting parameter alchLambda to 0.15000000000000002
Info: NONBONDED TABLE R-SQUARED SPACING: 0.0625
Info: NONBONDED TABLE SIZE: 705 POINTS
TCL: Setting parameter alchLambda2 to 0.2
Info: NONBONDED TABLE R-SQUARED SPACING: 0.0625
Info: NONBONDED TABLE SIZE: 705 POINTS
TCL: Running for 1500000 steps
ETITLE: TS BOND ANGLE DIHED IMPRP ELECT VDW BOUNDARY MISC KINETIC TOTAL TEMP POTENTIAL TOTALAVG TEMPAVG PRESSURE GPRESSURE VOLUME PRESSAVG GPRESSAVG
ENERGY: 0 2.1495 8.0863 3.9637 0.0000 -10737.1033 1399.2849 0.0000 0.0000 1733.3134 -7590.3055 294.2790 -9323.6188 -7590.3055 294.2790 -604.4865 -521.1883 30076.6609 -604.4865 -521.1883
ENERGY: 300000 3.6664 7.7414 2.6774 0.0000 -10816.3799 1487.7712 0.0000 0.0000 1792.3497 -7522.1737 304.3021 -9314.5234 -7517.2666 300.4392 431.0225 469.4836 29936.5668 104.3184 180.7935
ENERGY: 600000 2.0673 11.5295 4.9127 0.0000 -10708.9627 1405.4593 0.0000 0.0000 1803.2709 -7481.7230 306.1563 -9284.9939 -7499.5888 301.1090 -687.6215 -586.2065 30897.8195 -81.5618 12.5878
ENERGY: 900000 1.9314 4.9261 4.9459 0.0000 -10596.6204 1416.0360 0.0000 0.0000 1750.0098 -7418.7713 297.1137 -9168.7811 -7496.8696 299.6701 -157.7932 -75.9777 30785.3532 65.3981 151.1265
ENERGY: 1200000 1.9729 11.1706 3.5428 0.0000 -10745.5763 1436.4526 0.0000 0.0000 1787.3365 -7505.1009 303.4510 -9292.4374 -7502.6003 299.9163 -115.5994 -33.0995 30176.3221 178.8258 252.4531
ENERGY: 1500000 1.8942 8.4986 4.6100 0.0000 -10816.2587 1547.6862 0.0000 0.0000 1768.9571 -7484.6126 300.3305 -9253.5697 -7497.7068 300.4047 979.8168 1015.1349 29948.8537 202.3590 272.0108
TCL: Running FEP window   5: Lambda1 0.2    Lambda2 0.25   [dLambda 0.04999999999999999]
TCL: Setting parameter firsttimestep to 0
TCL: Setting parameter alchLambda to 0.2
Info: NONBONDED TABLE R-SQUARED SPACING: 0.0625
Info: NONBONDED TABLE SIZE: 705 POINTS
TCL: Setting parameter alchLambda2 to 0.25
Info: NONBONDED TABLE R-SQUARED SPACING: 0.0625
Info: NONBONDED TABLE SIZE: 705 POINTS
TCL: Running for 1500000 steps
ETITLE: TS BOND ANGLE DIHED IMPRP ELECT VDW BOUNDARY MISC KINETIC TOTAL TEMP POTENTIAL TOTALAVG TEMPAVG PRESSURE GPRESSURE VOLUME PRESSAVG GPRESSAVG
ENERGY: 0 1.8942 8.4986 4.6100 0.0000 -10816.2585 1549.4258 0.0000 0.0000 1768.0952 -7483.7347 300.1842 -9251.8299 -7483.7347 300.1842 932.0534 1025.4178 29948.8537 932.0534 1025.4178
ENERGY: 300000 1.8019 8.3287 4.8571 0.0000 -10838.4280 1575.2574 0.0000 0.0000 1791.7533 -7456.4296 304.2008 -9248.1830 -7523.5377 294.8149 1071.0222 1093.6904 30079.3231 669.9536 728.6018
ENERGY: 600000 2.9107 8.3251 5.8313 0.0000 -10761.7586 1505.5953 0.0000 0.0000 1793.9800 -7445.1162 304.5789 -9239.0962 -7515.6384 297.2717 370.5644 476.3507 30401.5593 591.5603 644.5903
ENERGY: 900000 3.0794 9.2278 4.2079 0.0000 -10546.3552 1294.8522 0.0000 0.0000 1772.1403 -7462.8475 300.8710 -9234.9878 -7517.5213 297.2644 -1394.6254 -1273.3896 30643.5132 417.8813 473.2262
ENERGY: 1200000 3.0686 11.5642 5.5751 0.0000 -10678.7905 1399.1907 0.0000 0.0000 1783.7673 -7475.6246 302.8450 -9259.3919 -7504.0885 298.3000 -481.0547 -421.0020 30390.9845 299.2737 360.3002
ENERGY: 1500000 0.6053 9.9794 2.9123 0.0000 -10598.7866 1349.7394 0.0000 0.0000 1756.8401 -7478.7101 298.2733 -9235.5502 -7503.9745 298.3237 -865.9800 -795.3987 30624.5604 230.2579 297.3108
TCL: Running FEP window   6: Lambda1 0.25   Lambda2 0.3    [dLambda 0.04999999999999999]
TCL: Setting parameter firsttimestep to 0
TCL: Setting parameter alchLambda to 0.25
Info: NONBONDED TABLE R-SQUARED SPACING: 0.0625
Info: NONBONDED TABLE SIZE: 705 POINTS
TCL: Setting parameter alchLambda2 to 0.3
Info: NONBONDED TABLE R-SQUARED SPACING: 0.0625
Info: NONBONDED TABLE SIZE: 705 POINTS
TCL: Running for 1500000 steps
ETITLE: TS BOND ANGLE DIHED IMPRP ELECT VDW BOUNDARY MISC KINETIC TOTAL TEMP POTENTIAL TOTALAVG TEMPAVG PRESSURE GPRESSURE VOLUME PRESSAVG GPRESSAVG
ENERGY: 0 0.6053 9.9794 2.9123 0.0000 -10598.7874 1349.3546 0.0000 0.0000 1755.9389 -7479.9969 298.1203 -9235.9358 -7479.9969 298.1203 -874.9362 -795.7732 30624.5604 -874.9362 -795.7732
ENERGY: 300000 0.7216 3.9203 1.7816 0.0000 -10844.4411 1450.7081 0.0000 0.0000 1735.8370 -7651.4725 294.7075 -9387.3095 -7563.9559 299.5413 -477.5083 -436.1629 30473.1370 -575.5508 -545.6018
ENERGY: 600000 2.0137 9.0043 2.2911 0.0000 -10707.0473 1467.8829 0.0000 0.0000 1815.4630 -7410.3923 308.2262 -9225.8554 -7514.9311 301.8128 286.0494 429.6623 30199.5521 -320.6187 -269.1153
ENERGY: 900000 1.1919 6.2628 4.6154 0.0000 -10852.0945 1523.9150 0.0000 0.0000 1726.1826 -7589.9269 293.0684 -9316.1095 -7520.7743 299.2077 585.9988 645.8395 30038.1440 -251.4890 -207.2060
ENERGY: 1200000 3.6086 6.1230 2.8028 0.0000 -10727.1049 1481.9991 0.0000 0.0000 1826.8019 -7405.7695 310.1513 -9232.5714 -7499.3942 300.8050 377.9253 410.9089 30572.9663 -169.1074 -121.2934
ENERGY: 1500000 3.0187 8.8491 5.5390 0.0000 -10714.6109 1449.6306 0.0000 0.0000 1770.4646 -7477.1088 300.5865 -9247.5735 -7503.2103 300.7451 405.0178 398.4223 29725.7344 -168.0361 -120.6996
TCL: Running FEP window   7: Lambda1 0.3    Lambda2 0.35   [dLambda 0.04999999999999999]
TCL: Setting parameter firsttimestep to 0
TCL: Setting parameter alchLambda to 0.3
Info: NONBONDED TABLE R-SQUARED SPACING: 0.0625
Info: NONBONDED TABLE SIZE: 705 POINTS
TCL: Setting parameter alchLambda2 to 0.35
Info: NONBONDED TABLE R-SQUARED SPACING: 0.0625
Info: NONBONDED TABLE SIZE: 705 POINTS
TCL: Running for 1500000 steps
ETITLE: TS BOND ANGLE DIHED IMPRP ELECT VDW BOUNDARY MISC KINETIC TOTAL TEMP POTENTIAL TOTALAVG TEMPAVG PRESSURE GPRESSURE VOLUME PRESSAVG GPRESSAVG
ENERGY: 0 3.0187 8.8491 5.5390 0.0000 -10714.6118 1449.7850 0.0000 0.0000 1769.5902 -7477.8298 300.4380 -9247.4201 -7477.8298 300.4380 331.7714 408.6071 29725.7344 331.7714 408.6071
ENERGY: 300000 4.9088 8.0407 3.9804 0.0000 -10787.0341 1502.9647 0.0000 0.0000 1846.2646 -7420.8749 313.4557 -9267.1395 -7467.5821 305.1516 254.6717 304.7126 30522.5082 293.6836 347.9996
ENERGY: 600000 2.2906 7.4347 5.6441 0.0000 -10797.8631 1510.1894 0.0000 0.0000 1837.6985 -7434.6057 312.0013 -9272.3042 -7440.0601 305.4420 520.3401 537.0595 30347.2744 142.3181 197.6065
ENERGY: 900000 3.6019 6.2386 3.6835 0.0000 -10614.8740 1352.0341 0.0000 0.0000 1737.7309 -7511.5850 295.0290 -9249.3159 -7461.5719 303.7300 -696.0616 -649.5175 30427.5878 -146.4133 -84.8525
ENERGY: 1200000 6.0427 6.4459 3.1414 0.0000 -10660.7754 1400.6523 0.0000 0.0000 1766.0675 -7478.4256 299.8399 -9244.4931 -7475.3912 301.7137 -414.1501 -388.3070 30616.3494 -165.2952 -106.5636
ENERGY: 1500000 4.2842 6.6822 2.6657 0.0000 -10809.1988 1492.8345 0.0000 0.0000 1827.9097 -7474.8226 310.3394 -9302.7323 -7480.7120 301.8503 565.3445 601.0593 29992.2250 -95.0051 -35.2280
TCL: Running FEP window   8: Lambda1 0.35   Lambda2 0.39999999999999997 [dLambda 0.04999999999999999]
TCL: Setting parameter firsttimestep to 0
TCL: Setting parameter alchLambda to 0.35
Info: NONBONDED TABLE R-SQUARED SPACING: 0.0625
Info: NONBONDED TABLE SIZE: 705 POINTS
TCL: Setting parameter alchLambda2 to 0.39999999999999997
Info: NONBONDED TABLE R-SQUARED SPACING: 0.0625
Info: NONBONDED TABLE SIZE: 705 POINTS
TCL: Running for 1500000 steps
ETITLE: TS BOND ANGLE DIHED IMPRP ELECT VDW BOUNDARY MISC KINETIC TOTAL TEMP POTENTIAL TOTALAVG TEMPAVG PRESSURE GPRESSURE VOLUME PRESSAVG GPRESSAVG
ENERGY: 0 4.2842 6.6822 2.6657 0.0000 -10809.1978 1493.0488 0.0000 0.0000 1827.0207 -7475.4963 310.1885 -9302.5170 -7475.4963 310.1885 526.4386 608.7449 29992.2250 526.4386 608.7449
ENERGY: 300000 2.2303 8.4400 3.9188 0.0000 -10564.6769 1318.9822 0.0000 0.0000 1802.6660 -7428.4397 306.0536 -9231.1056 -7498.9019 303.5873 -898.0248 -956.4677 30445.4394 91.9552 142.1242
ENERGY: 600000 1.4701 6.5215 3.1044 0.0000 -10562.0167 1318.3044 0.0000 0.0000 1759.0256 -7473.5906 298.6444 -9232.6162 -7510.0985 300.3805 -886.3925 -838.2551 30615.6423 -88.9066 -46.4118
ENERGY: 900000 1.6311 3.9886 2.9046 0.0000 -10707.9181 1422.7791 0.0000 0.0000 1774.6208 -7501.9940 301.2921 -9276.6148 -7500.4023 300.5862 -154.8327 -83.5536 30296.0139 -37.4188 12.8568
ENERGY: 1200000 4.7813 6.9620 3.1630 0.0000 -10735.9807 1463.0179 0.0000 0.0000 1720.8161 -7537.2402 292.1572 -9258.0564 -7503.5365 299.4786 -124.3662 -123.9929 30624.3038 -51.4903 -2.9369
ENERGY: 1500000 3.8595 7.1758 5.3286 0.0000 -10805.6980 1505.2955 0.0000 0.0000 1870.8750 -7413.1636 317.6340 -9284.0387 -7492.3850 300.8581 817.5214 791.0900 29935.6214 -37.4983 14.4894
TCL: Running FEP window   9: Lambda1 0.39999999999999997 Lambda2 0.44999999999999996 [dLambda 0.04999999999999999]
TCL: Setting parameter firsttimestep to 0
TCL: Setting parameter alchLambda to 0.39999999999999997
Info: NONBONDED TABLE R-SQUARED SPACING: 0.0625
Info: NONBONDED TABLE SIZE: 705 POINTS
TCL: Setting parameter alchLambda2 to 0.44999999999999996
Info: NONBONDED TABLE R-SQUARED SPACING: 0.0625
Info: NONBONDED TABLE SIZE: 705 POINTS
TCL: Running for 1500000 steps
ETITLE: TS BOND ANGLE DIHED IMPRP ELECT VDW BOUNDARY MISC KINETIC TOTAL TEMP POTENTIAL TOTALAVG TEMPAVG PRESSURE GPRESSURE VOLUME PRESSAVG GPRESSAVG
ENERGY: 0 3.8595 7.1758 5.3286 0.0000 -10805.6990 1506.4872 0.0000 0.0000 1870.0009 -7412.8471 317.4856 -9282.8479 -7412.8471 317.4856 734.3632 807.9076 29935.6214 734.3632 807.9076
ENERGY: 300000 0.6532 10.7303 2.4785 0.0000 -10585.1465 1331.1704 0.0000 0.0000 1754.0139 -7486.1002 297.7935 -9240.1141 -7490.9050 300.1069 -871.1076 -842.3451 30703.0948 -362.6739 -286.8540
ENERGY: 600000 0.7638 12.0691 2.4655 0.0000 -10694.4004 1507.5533 0.0000 0.0000 1794.2934 -7377.2553 304.6321 -9171.5487 -7482.0586 300.2886 679.5167 724.1639 30499.2329 -183.0680 -121.3605
ENERGY: 900000 0.9637 10.4858 2.7332 0.0000 -10757.7099 1421.4870 0.0000 0.0000 1796.5101 -7525.5301 305.0084 -9322.0402 -7488.4396 300.8416 -297.7091 -230.3752 30362.3366 -159.5567 -98.5560
ENERGY: 1200000 3.3899 7.2751 3.6965 0.0000 -10701.7833 1426.3057 0.0000 0.0000 1719.9761 -7541.1400 292.0146 -9261.1161 -7507.8742 300.2967 -323.2285 -298.4563 30535.6315 -169.9230 -105.8647
ENERGY: 1500000 4.7088 5.4993 2.7853 0.0000 -10881.6908 1544.8054 0.0000 0.0000 1751.2472 -7572.6449 297.3238 -9323.8920 -7507.1084 300.5397 472.5483 499.7048 30495.4638 -150.3300 -79.4245
TCL: Running FEP window  10: Lambda1 0.44999999999999996 Lambda2 0.49999999999999994 [dLambda 0.04999999999999999]
TCL: Setting parameter firsttimestep to 0
TCL: Setting parameter alchLambda to 0.44999999999999996
Info: NONBONDED TABLE R-SQUARED SPACING: 0.0625
Info: NONBONDED TABLE SIZE: 705 POINTS
TCL: Setting parameter alchLambda2 to 0.49999999999999994
Info: NONBONDED TABLE R-SQUARED SPACING: 0.0625
Info: NONBONDED TABLE SIZE: 705 POINTS
TCL: Running for 1500000 steps
ETITLE: TS BOND ANGLE DIHED IMPRP ELECT VDW BOUNDARY MISC KINETIC TOTAL TEMP POTENTIAL TOTALAVG TEMPAVG PRESSURE GPRESSURE VOLUME PRESSAVG GPRESSAVG
ENERGY: 0 4.7087 5.4993 2.7853 0.0000 -10881.6930 1545.6404 0.0000 0.0000 1750.3980 -7572.6613 297.1796 -9323.0593 -7572.6613 297.1796 441.5852 516.1520 30495.4638 441.5852 516.1520
ENERGY: 300000 2.9442 9.4223 4.8746 0.0000 -10713.0302 1387.5499 0.0000 0.0000 1812.9557 -7495.2834 307.8006 -9308.2392 -7504.3436 301.0924 -438.9972 -343.0491 30077.4698 -274.2428 -202.4004
ENERGY: 600000 0.7915 9.1396 2.0277 0.0000 -10766.4526 1478.2937 0.0000 0.0000 1785.5611 -7490.6390 303.1495 -9276.2002 -7521.6342 299.1919 171.9469 145.3488 30698.6278 -255.9915 -196.5731
ENERGY: 900000 2.8581 9.8472 3.9831 0.0000 -10683.2960 1474.9502 0.0000 0.0000 1791.5918 -7400.0656 304.1734 -9191.6574 -7489.7201 299.9663 553.3533 597.1947 30089.4606 -235.3140 -174.6297
ENERGY: 1200000 2.4308 8.4661 4.6629 0.0000 -10821.0110 1476.3262 0.0000 0.0000 1811.7735 -7517.3515 307.5998 -9329.1250 -7491.2618 300.1412 59.0886 124.0070 30435.5390 -52.1801 6.1836
ENERGY: 1500000 5.8178 5.1273 3.2277 0.0000 -10622.1836 1361.3909 0.0000 0.0000 1756.7157 -7489.9041 298.2522 -9246.6198 -7492.7087 300.2526 -785.6855 -690.4416 30616.0117 -19.7548 43.2286
TCL: Running FEP window  11: Lambda1 0.49999999999999994 Lambda2 0.5499999999999999 [dLambda 0.04999999999999999]
TCL: Setting parameter firsttimestep to 0
TCL: Setting parameter alchLambda to 0.49999999999999994
Info: NONBONDED TABLE R-SQUARED SPACING: 0.0625
Info: NONBONDED TABLE SIZE: 705 POINTS
TCL: Setting parameter alchLambda2 to 0.5499999999999999
Info: NONBONDED TABLE R-SQUARED SPACING: 0.0625
Info: NONBONDED TABLE SIZE: 705 POINTS
TCL: Running for 1500000 steps
ETITLE: TS BOND ANGLE DIHED IMPRP ELECT VDW BOUNDARY MISC KINETIC TOTAL TEMP POTENTIAL TOTALAVG TEMPAVG PRESSURE GPRESSURE VOLUME PRESSAVG GPRESSAVG
ENERGY: 0 5.8178 5.1273 3.2277 0.0000 -10622.1862 1362.3400 0.0000 0.0000 1755.8575 -7489.8158 298.1065 -9245.6733 -7489.8158 298.1065 -769.8273 -677.0970 30616.0117 -769.8273 -677.0970
ENERGY: 300000 3.2530 8.9240 2.4058 0.0000 -10806.6042 1469.5187 0.0000 0.0000 1681.1507 -7641.3520 285.4229 -9322.5027 -7502.9411 297.0497 -195.4823 -160.3849 30466.9830 -36.0531 43.9673
ENERGY: 600000 1.2138 8.7615 2.1373 0.0000 -10733.8459 1530.8472 0.0000 0.0000 1728.0269 -7462.8592 293.3815 -9190.8861 -7505.5895 296.8248 552.7838 584.6717 30815.0713 226.9497 297.1244
ENERGY: 900000 2.0257 9.6506 2.5621 0.0000 -10623.7883 1358.0616 0.0000 0.0000 1806.5795 -7444.9089 306.7180 -9251.4883 -7489.3155 299.5938 -751.3818 -656.2021 30551.1677 133.4515 211.7586
ENERGY: 1200000 3.4739 7.1519 1.4444 0.0000 -10509.5534 1290.3038 0.0000 0.0000 1725.8048 -7481.3746 293.0042 -9207.1794 -7483.7297 299.4116 -1033.7996 -941.1090 30233.4114 65.9666 136.3802
ENERGY: 1500000 3.6357 7.4605 2.3237 0.0000 -10596.5924 1347.3556 0.0000 0.0000 1775.1446 -7460.6723 301.3810 -9235.8169 -7485.9370 299.0815 -686.2283 -617.6803 30453.0509 -47.9137 19.2349
TCL: Running FEP window  12: Lambda1 0.5499999999999999 Lambda2 0.6    [dLambda 0.050000000000000044]
TCL: Setting parameter firsttimestep to 0
TCL: Setting parameter alchLambda to 0.5499999999999999
Info: NONBONDED TABLE R-SQUARED SPACING: 0.0625
Info: NONBONDED TABLE SIZE: 705 POINTS
TCL: Setting parameter alchLambda2 to 0.6
Info: NONBONDED TABLE R-SQUARED SPACING: 0.0625
Info: NONBONDED TABLE SIZE: 705 POINTS
TCL: Running for 1500000 steps
ETITLE: TS BOND ANGLE DIHED IMPRP ELECT VDW BOUNDARY MISC KINETIC TOTAL TEMP POTENTIAL TOTALAVG TEMPAVG PRESSURE GPRESSURE VOLUME PRESSAVG GPRESSAVG
ENERGY: 0 3.6357 7.4605 2.3237 0.0000 -10596.4452 1347.5873 0.0000 0.0000 1774.2437 -7461.1943 301.2281 -9235.4380 -7461.1943 301.2281 -676.6019 -606.5902 30453.0509 -676.6019 -606.5902
ENERGY: 300000 4.0727 7.2645 4.1175 0.0000 -10683.1847 1406.3518 0.0000 0.0000 1743.4845 -7517.8936 296.0058 -9261.3781 -7474.6003 299.5569 -274.4326 -225.5484 30423.5894 -479.6912 -426.7751
ENERGY: 600000 7.9001 6.8594 7.0908 0.0000 -10589.3770 1426.1315 0.0000 0.0000 1801.5313 -7339.8639 305.8609 -9141.3952 -7459.1171 299.7202 -42.8353 66.6947 30383.8268 -235.3099 -168.9318
ENERGY: 900000 2.9459 10.6296 3.2649 0.0000 -10690.4841 1437.1028 0.0000 0.0000 1775.1906 -7461.3502 301.3889 -9236.5408 -7469.0922 299.3174 61.4845 164.7071 29994.0285 -246.5122 -171.3499
ENERGY: 1200000 2.0064 7.6520 4.6418 0.0000 -10818.5352 1494.0028 0.0000 0.0000 1776.9682 -7533.2640 301.6907 -9310.2322 -7490.6184 299.7151 303.2502 356.7838 30470.6760 -181.7084 -110.6052
ENERGY: 1500000 2.6990 5.8698 3.1772 0.0000 -10633.6115 1370.3645 0.0000 0.0000 1733.3354 -7518.1657 294.2827 -9251.5010 -7492.6746 299.3999 -599.8077 -565.0469 30658.6342 -229.3669 -161.0455
TCL: Running FEP window  13: Lambda1 0.6    Lambda2 0.65   [dLambda 0.050000000000000044]
TCL: Setting parameter firsttimestep to 0
TCL: Setting parameter alchLambda to 0.6
Info: NONBONDED TABLE R-SQUARED SPACING: 0.0625
Info: NONBONDED TABLE SIZE: 705 POINTS
TCL: Setting parameter alchLambda2 to 0.65
Info: NONBONDED TABLE R-SQUARED SPACING: 0.0625
Info: NONBONDED TABLE SIZE: 705 POINTS
TCL: Running for 1500000 steps
ETITLE: TS BOND ANGLE DIHED IMPRP ELECT VDW BOUNDARY MISC KINETIC TOTAL TEMP POTENTIAL TOTALAVG TEMPAVG PRESSURE GPRESSURE VOLUME PRESSAVG GPRESSAVG
ENERGY: 0 2.6990 5.8698 3.1772 0.0000 -10633.5764 1370.6094 0.0000 0.0000 1732.4441 -7518.7769 294.1314 -9251.2210 -7518.7769 294.1314 -630.7765 -556.4532 30658.6342 -630.7765 -556.4532
ENERGY: 300000 4.1247 6.1018 3.3642 0.0000 -10578.3617 1348.6532 0.0000 0.0000 1782.7932 -7433.3246 302.6796 -9216.1178 -7480.0040 299.2086 -680.1591 -587.9225 30623.4356 -559.6978 -499.4705
ENERGY: 600000 2.2181 12.7222 4.0109 0.0000 -10474.7778 1318.6703 0.0000 0.0000 1833.0169 -7304.1394 311.2065 -9137.1563 -7473.0373 298.9925 -670.3309 -616.5173 30767.4639 -528.7634 -443.9141
ENERGY: 900000 2.1456 7.6318 4.7586 0.0000 -10698.9035 1446.5679 0.0000 0.0000 1792.4947 -7445.3048 304.3267 -9237.7996 -7490.6614 299.7249 360.8456 374.0613 30026.3567 -414.9115 -335.6502
ENERGY: 1200000 2.6406 8.8086 2.5232 0.0000 -10747.8479 1450.4946 0.0000 0.0000 1756.7536 -7526.6273 298.2587 -9283.3809 -7498.9201 299.5491 -2.9337 105.4978 30315.8682 -235.2587 -165.3219
ENERGY: 1500000 4.3843 12.2817 3.7957 0.0000 -10699.4632 1459.1459 0.0000 0.0000 1754.1035 -7465.7521 297.8087 -9219.8556 -7495.4629 298.9002 208.4772 216.3939 30414.8058 -193.3861 -130.6367
TCL: Running FEP window  14: Lambda1 0.65   Lambda2 0.7000000000000001 [dLambda 0.050000000000000044]
TCL: Setting parameter firsttimestep to 0
TCL: Setting parameter alchLambda to 0.65
Info: NONBONDED TABLE R-SQUARED SPACING: 0.0625
Info: NONBONDED TABLE SIZE: 705 POINTS
TCL: Setting parameter alchLambda2 to 0.7000000000000001
Info: NONBONDED TABLE R-SQUARED SPACING: 0.0625
Info: NONBONDED TABLE SIZE: 705 POINTS
TCL: Running for 1500000 steps
ETITLE: TS BOND ANGLE DIHED IMPRP ELECT VDW BOUNDARY MISC KINETIC TOTAL TEMP POTENTIAL TOTALAVG TEMPAVG PRESSURE GPRESSURE VOLUME PRESSAVG GPRESSAVG
ENERGY: 0 4.3843 12.2817 3.7957 0.0000 -10700.3061 1459.9587 0.0000 0.0000 1753.2207 -7466.6650 297.6588 -9219.8857 -7466.6650 297.6588 156.3182 231.3303 30414.8058 156.3182 231.3303
ENERGY: 300000 2.0556 9.3793 4.3113 0.0000 -10684.0791 1436.2496 0.0000 0.0000 1725.2979 -7506.7854 292.9182 -9232.0833 -7446.0469 299.6904 -10.1937 40.8014 30325.8454 -164.7869 -114.6894
ENERGY: 600000 2.4821 7.0695 6.0302 0.0000 -10783.0267 1492.3949 0.0000 0.0000 1785.0174 -7490.0325 303.0572 -9275.0499 -7478.5481 298.2875 409.0409 484.7753 30324.7426 44.0528 103.2768
ENERGY: 900000 1.1065 7.3854 3.3507 0.0000 -10557.2141 1297.4127 0.0000 0.0000 1715.9845 -7531.9743 291.3369 -9247.9588 -7484.9281 298.4568 -986.2315 -940.6355 30211.6646 -116.4647 -64.5807
ENERGY: 1200000 2.3864 8.2126 3.0801 0.0000 -10675.7613 1374.9989 0.0000 0.0000 1832.9057 -7454.1776 311.1876 -9287.0833 -7490.3985 299.6480 -563.4836 -508.5806 30284.8089 -175.3217 -124.2658
ENERGY: 1500000 1.7694 8.6317 4.2659 0.0000 -10581.8619 1356.2208 0.0000 0.0000 1755.0509 -7455.9232 297.9696 -9210.9741 -7481.8562 300.1606 -584.5569 -551.5350 30668.6204 -188.1795 -134.0287
TCL: Running FEP window  15: Lambda1 0.7000000000000001 Lambda2 0.7500000000000001 [dLambda 0.050000000000000044]
TCL: Setting parameter firsttimestep to 0
TCL: Setting parameter alchLambda to 0.7000000000000001
Info: NONBONDED TABLE R-SQUARED SPACING: 0.0625
Info: NONBONDED TABLE SIZE: 705 POINTS
TCL: Setting parameter alchLambda2 to 0.7500000000000001
Info: NONBONDED TABLE R-SQUARED SPACING: 0.0625
Info: NONBONDED TABLE SIZE: 705 POINTS
TCL: Running for 1500000 steps
ETITLE: TS BOND ANGLE DIHED IMPRP ELECT VDW BOUNDARY MISC KINETIC TOTAL TEMP POTENTIAL TOTALAVG TEMPAVG PRESSURE GPRESSURE VOLUME PRESSAVG GPRESSAVG
ENERGY: 0 1.7694 8.6317 4.2659 0.0000 -10583.1673 1356.2182 0.0000 0.0000 1754.1909 -7458.0913 297.8235 -9212.2822 -7458.0913 297.8235 -631.5308 -543.8559 30668.6204 -631.5308 -543.8559
ENERGY: 300000 1.9173 4.0723 3.1924 0.0000 -10569.4453 1326.0870 0.0000 0.0000 1749.3774 -7484.7990 297.0063 -9234.1764 -7473.6240 303.1145 -654.1284 -616.4098 30292.8520 -123.0112 -53.7755
ENERGY: 600000 4.3238 7.0051 3.5456 0.0000 -10756.0971 1464.2794 0.0000 0.0000 1788.7858 -7488.1574 303.6970 -9276.9433 -7510.0805 301.2899 -15.0265 93.3178 30494.8361 -262.7467 -186.8746
ENERGY: 900000 1.2616 8.7342 2.9494 0.0000 -10790.2228 1492.9534 0.0000 0.0000 1763.8169 -7520.5074 299.4578 -9284.3243 -7510.8048 300.9718 378.2247 454.4863 30323.5952 -107.3383 -38.5559
ENERGY: 1200000 0.7371 9.8608 3.6115 0.0000 -10663.0288 1422.4958 0.0000 0.0000 1846.8227 -7379.5010 313.5504 -9226.3236 -7491.2793 302.2642 140.6947 192.1097 30280.3692 -148.0883 -84.6268
ENERGY: 1500000 1.6594 10.6438 2.6280 0.0000 -10739.1626 1473.6248 0.0000 0.0000 1824.7416 -7425.8649 309.8015 -9250.6065 -7485.4923 302.9690 434.9236 524.6583 30504.5994 -129.7010 -65.5430
TCL: Running FEP window  16: Lambda1 0.7500000000000001 Lambda2 0.8000000000000002 [dLambda 0.050000000000000044]
TCL: Setting parameter firsttimestep to 0
TCL: Setting parameter alchLambda to 0.7500000000000001
Info: NONBONDED TABLE R-SQUARED SPACING: 0.0625
Info: NONBONDED TABLE SIZE: 705 POINTS
TCL: Setting parameter alchLambda2 to 0.8000000000000002
Info: NONBONDED TABLE R-SQUARED SPACING: 0.0625
Info: NONBONDED TABLE SIZE: 705 POINTS
TCL: Running for 1500000 steps
ETITLE: TS BOND ANGLE DIHED IMPRP ELECT VDW BOUNDARY MISC KINETIC TOTAL TEMP POTENTIAL TOTALAVG TEMPAVG PRESSURE GPRESSURE VOLUME PRESSAVG GPRESSAVG
ENERGY: 0 1.6594 10.6438 2.6280 0.0000 -10740.7331 1473.9791 0.0000 0.0000 1823.8753 -7427.9474 309.6545 -9251.8228 -7427.9474 309.6545 457.4463 537.1654 30504.5994 457.4463 537.1654
ENERGY: 300000 2.2847 7.1886 3.4134 0.0000 -10745.1744 1471.0956 0.0000 0.0000 1698.3142 -7562.8778 288.3369 -9261.1920 -7480.9990 298.2730 -73.1153 91.6024 30804.0868 -29.9204 70.5447
ENERGY: 600000 1.6090 9.4935 5.2407 0.0000 -10663.6271 1398.2610 0.0000 0.0000 1754.8835 -7494.1395 297.9411 -9249.0230 -7472.1640 299.1693 -245.0209 -192.9922 30594.8222 -93.8032 -20.6015
ENERGY: 900000 2.4815 6.4932 1.7710 0.0000 -10702.6661 1456.4687 0.0000 0.0000 1787.3447 -7448.1070 303.4524 -9235.4517 -7456.2370 301.5736 -61.3844 -27.3177 31018.4436 -33.1535 38.9624
ENERGY: 1200000 0.8697 8.3229 2.5614 0.0000 -10685.9740 1398.2333 0.0000 0.0000 1771.4619 -7504.5248 300.7558 -9275.9866 -7457.2173 301.7624 -385.0050 -298.1372 30630.1216 -80.0316 -11.5501
ENERGY: 1500000 0.6387 6.3568 3.6424 0.0000 -10642.3040 1366.7227 0.0000 0.0000 1779.3998 -7485.5436 302.1035 -9264.9434 -7455.7585 301.9189 -643.1662 -560.0901 30447.9910 -66.5918 2.5535
TCL: Running FEP window  17: Lambda1 0.8000000000000002 Lambda2 0.8500000000000002 [dLambda 0.050000000000000044]
TCL: Setting parameter firsttimestep to 0
TCL: Setting parameter alchLambda to 0.8000000000000002
Info: NONBONDED TABLE R-SQUARED SPACING: 0.0625
Info: NONBONDED TABLE SIZE: 705 POINTS
TCL: Setting parameter alchLambda2 to 0.8500000000000002
Info: NONBONDED TABLE R-SQUARED SPACING: 0.0625
Info: NONBONDED TABLE SIZE: 705 POINTS
TCL: Running for 1500000 steps
ETITLE: TS BOND ANGLE DIHED IMPRP ELECT VDW BOUNDARY MISC KINETIC TOTAL TEMP POTENTIAL TOTALAVG TEMPAVG PRESSURE GPRESSURE VOLUME PRESSAVG GPRESSAVG
ENERGY: 0 0.6387 6.3568 3.6424 0.0000 -10642.8926 1366.1026 0.0000 0.0000 1778.5305 -7487.6217 301.9559 -9266.1521 -7487.6217 301.9559 -637.1895 -557.5414 30447.9910 -637.1895 -557.5414
ENERGY: 300000 2.4784 9.2497 4.1173 0.0000 -10678.5322 1376.6433 0.0000 0.0000 1771.9478 -7514.0958 300.8383 -9286.0435 -7497.5422 303.6360 -569.8140 -489.4623 30506.2069 -43.8880 5.1914
ENERGY: 600000 1.1690 7.8147 3.9347 0.0000 -10546.3387 1293.5900 0.0000 0.0000 1795.2465 -7444.5838 304.7939 -9239.8303 -7500.7580 302.5254 -1233.1448 -1222.2428 30791.0102 -300.7271 -241.9026
ENERGY: 900000 1.6815 7.5454 2.6147 0.0000 -10702.0772 1460.2458 0.0000 0.0000 1766.3811 -7463.6086 299.8932 -9229.9898 -7496.5679 302.9459 200.7979 276.0650 30361.0830 -181.3222 -114.0517
ENERGY: 1200000 1.6649 12.9068 4.0135 0.0000 -10684.5283 1467.6304 0.0000 0.0000 1741.0272 -7457.2856 295.5886 -9198.3128 -7497.9866 302.6639 353.7604 441.2373 30384.5641 -121.8975 -53.4411
ENERGY: 1500000 1.6741 11.0377 4.7622 0.0000 -10663.2849 1394.9046 0.0000 0.0000 1774.7963 -7476.1099 301.3219 -9250.9063 -7500.3862 302.0818 -481.2447 -412.7427 30923.9893 -159.1256 -91.3642
TCL: Running FEP window  18: Lambda1 0.8500000000000002 Lambda2 0.9000000000000002 [dLambda 0.050000000000000044]
TCL: Setting parameter firsttimestep to 0
TCL: Setting parameter alchLambda to 0.8500000000000002
Info: NONBONDED TABLE R-SQUARED SPACING: 0.0625
Info: NONBONDED TABLE SIZE: 705 POINTS
TCL: Setting parameter alchLambda2 to 0.9000000000000002
Info: NONBONDED TABLE R-SQUARED SPACING: 0.0625
Info: NONBONDED TABLE SIZE: 705 POINTS
TCL: Running for 1500000 steps
ETITLE: TS BOND ANGLE DIHED IMPRP ELECT VDW BOUNDARY MISC KINETIC TOTAL TEMP POTENTIAL TOTALAVG TEMPAVG PRESSURE GPRESSURE VOLUME PRESSAVG GPRESSAVG
ENERGY: 0 1.6741 11.0377 4.7622 0.0000 -10664.3734 1395.4952 0.0000 0.0000 1773.9215 -7477.4826 301.1734 -9251.4041 -7477.4826 301.1734 -482.1052 -399.4127 30923.9893 -482.1052 -399.4127
ENERGY: 300000 2.6976 7.6889 3.2853 0.0000 -10736.3246 1417.2016 0.0000 0.0000 1794.3729 -7511.0783 304.6456 -9305.4512 -7515.8786 301.4715 -66.7505 -74.1060 30292.5440 341.8285 391.4991
ENERGY: 600000 4.1481 6.3116 2.5503 0.0000 -10723.1040 1449.4265 0.0000 0.0000 1756.0888 -7504.5786 298.1458 -9260.6674 -7506.2179 300.3656 63.1694 215.4334 30412.3892 201.3489 273.4570
ENERGY: 900000 2.4020 5.0722 3.0956 0.0000 -10713.1967 1419.7060 0.0000 0.0000 1801.9725 -7480.9485 305.9358 -9282.9210 -7503.5215 301.7240 89.1582 119.9056 30456.0624 128.8688 196.2607
ENERGY: 1200000 1.6100 8.0620 3.0640 0.0000 -10681.5202 1431.0891 0.0000 0.0000 1768.0866 -7469.6086 300.1827 -9237.6952 -7502.6564 301.4768 100.5545 233.5740 30404.9768 -3.1813 63.0284
ENERGY: 1500000 8.4575 9.1242 3.7972 0.0000 -10589.8053 1379.1023 0.0000 0.0000 1732.8231 -7456.5010 294.1958 -9189.3241 -7498.4701 301.2894 -289.5617 -249.2619 30442.2314 37.1429 95.5962
TCL: Running FEP window  19: Lambda1 0.9000000000000002 Lambda2 0.9500000000000003 [dLambda 0.050000000000000044]
TCL: Setting parameter firsttimestep to 0
TCL: Setting parameter alchLambda to 0.9000000000000002
Info: NONBONDED TABLE R-SQUARED SPACING: 0.0625
Info: NONBONDED TABLE SIZE: 705 POINTS
TCL: Setting parameter alchLambda2 to 0.9500000000000003
Info: NONBONDED TABLE R-SQUARED SPACING: 0.0625
Info: NONBONDED TABLE SIZE: 705 POINTS
TCL: Running for 1500000 steps
ETITLE: TS BOND ANGLE DIHED IMPRP ELECT VDW BOUNDARY MISC KINETIC TOTAL TEMP POTENTIAL TOTALAVG TEMPAVG PRESSURE GPRESSURE VOLUME PRESSAVG GPRESSAVG
ENERGY: 0 8.4575 9.1242 3.7972 0.0000 -10590.6823 1378.9687 0.0000 0.0000 1731.9787 -7458.3560 294.0524 -9190.3347 -7458.3560 294.0524 -321.2160 -237.5877 30442.2314 -321.2160 -237.5877
ENERGY: 300000 0.4961 7.9001 1.8828 0.0000 -10810.5922 1510.7393 0.0000 0.0000 1768.9178 -7520.6562 300.3239 -9289.5740 -7506.7468 302.3618 632.5025 640.8177 30347.2350 262.5436 324.1852
ENERGY: 600000 1.5527 9.0602 4.7313 0.0000 -10610.1263 1379.6137 0.0000 0.0000 1709.1524 -7506.0160 290.1770 -9215.1684 -7481.4283 300.3525 -473.3249 -372.5666 30813.4617 -3.1782 59.0597
ENERGY: 900000 2.5019 6.1354 2.5900 0.0000 -10805.3439 1435.6315 0.0000 0.0000 1803.4393 -7555.0459 306.1849 -9358.4852 -7482.2873 300.0038 -376.6541 -336.4282 30600.2517 -99.9430 -34.2269
ENERGY: 1200000 4.4439 10.7212 3.2026 0.0000 -10721.2475 1408.9532 0.0000 0.0000 1759.4662 -7534.4604 298.7192 -9293.9266 -7487.5347 300.0241 -428.4278 -430.0556 30554.8727 -6.2315 54.7404
ENERGY: 1500000 2.5972 4.1256 3.5950 0.0000 -10678.9421 1400.0624 0.0000 0.0000 1771.6877 -7496.8743 300.7941 -9268.5620 -7485.0146 301.1112 -639.1729 -534.8557 30972.0188 -49.4710 21.0620
TCL: Running FEP window  20: Lambda1 0.9500000000000003 Lambda2 1.0    [dLambda 0.04999999999999971]
TCL: Setting parameter firsttimestep to 0
TCL: Setting parameter alchLambda to 0.9500000000000003
Info: NONBONDED TABLE R-SQUARED SPACING: 0.0625
Info: NONBONDED TABLE SIZE: 705 POINTS
TCL: Setting parameter alchLambda2 to 1.0
Info: NONBONDED TABLE R-SQUARED SPACING: 0.0625
Info: NONBONDED TABLE SIZE: 705 POINTS
TCL: Running for 1500000 steps
ETITLE: TS BOND ANGLE DIHED IMPRP ELECT VDW BOUNDARY MISC KINETIC TOTAL TEMP POTENTIAL TOTALAVG TEMPAVG PRESSURE GPRESSURE VOLUME PRESSAVG GPRESSAVG
ENERGY: 0 2.5972 4.1256 3.5950 0.0000 -10679.9911 1400.1479 0.0000 0.0000 1770.8621 -7498.6633 300.6540 -9269.5254 -7498.6633 300.6540 -603.5441 -525.0195 30972.0188 -603.5441 -525.0195
ENERGY: 300000 0.5055 6.1014 3.4231 0.0000 -10638.1834 1466.7035 0.0000 0.0000 1804.6099 -7356.8400 306.3836 -9161.4500 -7485.8236 299.7248 559.1110 648.4911 30679.0296 54.8056 117.0584
ENERGY: 600000 1.1320 15.1835 4.3691 0.0000 -10567.0523 1380.8484 0.0000 0.0000 1742.5135 -7423.0057 295.8410 -9165.5192 -7478.6961 299.0984 -298.7971 -241.6811 30512.7452 28.0919 82.3304
ENERGY: 900000 1.2444 5.7049 3.0728 0.0000 -10783.0162 1446.2126 0.0000 0.0000 1806.7205 -7520.0610 306.7419 -9326.7815 -7479.8949 300.5922 98.1282 171.4761 30104.5707 15.1816 69.2767
ENERGY: 1200000 2.7970 7.7250 3.0568 0.0000 -10731.2384 1431.1559 0.0000 0.0000 1789.1324 -7497.3714 303.7559 -9286.5037 -7479.8038 300.7747 -311.7078 -237.5987 31055.5736 51.0444 109.9535
ENERGY: 1500000 2.4271 8.7181 3.4026 0.0000 -10698.8822 1427.3716 0.0000 0.0000 1770.9206 -7486.0423 300.6639 -9256.9629 -7493.9252 299.5601 -249.6847 -206.5369 30907.9358 -11.2030 43.6726
TCL: Exiting due to exit command.
