Info: SIMULATION PARAMETERS:
Info: TIMESTEP               2
Info: NUMBER OF STEPS        0
Info: STEPS PER CYCLE        10
Info: PERIODIC CELL BASIS 1  30.7847 0 0
Info: PERIODIC CELL BASIS 2  0 33.2687 0
Info: PERIODIC CELL BASIS 3  0 0 29.2547
Info: PERIODIC CELL CENTER   0 0 0
Info: WRAPPING WATERS AROUND PERIODIC BOUNDARIES ON OUTPUT.
Info: WRAPPING ALL CLUSTERS AROUND PERIODIC BOUNDARIES ON OUTPUT.
Info: FIRST LDB TIMESTEP     50
Info: LAST LDB TIMESTEP     -1
Info: HOM BACKGROUND SCALING 1
Info: PME BACKGROUND SCALING 1
Info: MIN ATOMS PER PATCH    40
Info: EMPTY PATCH LOAD       40 ATOMS
Info: VELOCITY FILE          mobley_6620221_equil.vel
Info: CENTER OF MASS MOVING INITIALLY? NO
Info: DIELECTRIC             1
Info: EXCLUDE                SCALED ONE-FOUR
Info: 1-4 ELECTROSTATICS SCALED BY 0.833333
Info: MODIFIED 1-4 VDW PARAMETERS WILL BE USED
Info: DCD FILENAME           mobley_6620221_prod.dcd
Info: DCD FREQUENCY          100000
Info: DCD FIRST STEP         100000
Info: DCD FILE WILL CONTAIN UNIT CELL DATA
Info: XST FILENAME           mobley_6620221_prod.xst
Info: XST FREQUENCY          100000
Info: NO VELOCITY DCD OUTPUT
Info: NO FORCE DCD OUTPUT
Info: OUTPUT FILENAME        mobley_6620221_prod
Info: BINARY OUTPUT FILES WILL BE USED
Info: RESTART FILENAME       mobley_6620221_prod.restart
Info: RESTART FREQUENCY      100000
Info: BINARY RESTART FILES WILL BE USED
Info: CUTOFF                 9
Info: PAIRLIST DISTANCE      11
Info: PAIRLIST SHRINK RATE   0.01
Info: PAIRLIST GROW RATE     0.01
Info: PAIRLIST TRIGGER       0.3
Info: PAIRLISTS PER CYCLE    2
Info: PAIRLISTS ENABLED
Info: MARGIN                 2
Info: HYDROGEN GROUP CUTOFF  2.5
Info: PATCH DIMENSION        15.5
Info: ENERGY OUTPUT STEPS    100000
Info: ENERGY EVALUATION STEPS    100000
Info: OUTPUT ENERGY PRECISION 4
Info: CROSSTERM ENERGY INCLUDED IN DIHEDRAL
Info: TIMING OUTPUT STEPS    1000000
Info: PRESSURE OUTPUT STEPS  100000
Info: ALCHEMICAL FEP ON
Info: FEP CURRENT LAMBDA VALUE     1
Info: FEP COMPARISON LAMBDA VALUE  0.95
Info: FEP INTRA-ALCHEMICAL NON-BONDED INTERACTIONS WILL BE RETAINED
Info: FEP INTRA-ALCHEMICAL BONDED INTERACTIONS WILL BE RETAINED
Info: FEP VDW SHIFTING COEFFICIENT 5
Info: FEP ELEC. ACTIVE FOR ANNIHILATED PARTICLES BETWEEN LAMBDA = 0 AND LAMBDA = 0.5
Info: FEP ELEC. ACTIVE FOR EXNIHILATED PARTICLES BETWEEN LAMBDA = 0.5 AND LAMBDA = 1
Info: FEP VDW ACTIVE FOR ANNIHILATED PARTICLES BETWEEN LAMBDA = 0 AND LAMBDA = 1
Info: FEP VDW ACTIVE FOR EXNIHILATED PARTICLES BETWEEN LAMBDA = 0 AND LAMBDA = 1
Info: FEP BOND ACTIVE FOR ANNIHILATED PARTICLES BETWEEN LAMBDA = 1 AND LAMBDA = 1
Info: FEP BOND ACTIVE FOR EXNIHILATED PARTICLES BETWEEN LAMBDA = 0 AND LAMBDA = 0
Info: LANGEVIN DYNAMICS ACTIVE
Info: LANGEVIN TEMPERATURE   300
Info: LANGEVIN USING BBK INTEGRATOR
Info: LANGEVIN DAMPING COEFFICIENT IS 1 INVERSE PS
Info: LANGEVIN DYNAMICS APPLIED TO HYDROGENS
Info: LANGEVIN PISTON PRESSURE CONTROL ACTIVE
Info:        TARGET PRESSURE IS 1.01325 BAR
Info:     OSCILLATION PERIOD IS 50 FS
Info:             DECAY TIME IS 25 FS
Info:     PISTON TEMPERATURE IS 300 K
Info:       PRESSURE CONTROL IS GROUP-BASED
Info:    INITIAL STRAIN RATE IS -4.56909e-05 -4.56909e-05 -4.56909e-05
Info:       CELL FLUCTUATION IS ISOTROPIC
Info: PARTICLE MESH EWALD (PME) ACTIVE
Info: PME TOLERANCE               1e-06
Info: PME EWALD COEFFICIENT       0.348832
Info: PME INTERPOLATION ORDER     4
Info: PME GRID DIMENSIONS         32 36 32
Info: PME MAXIMUM GRID SPACING    1
Info: PME CALCULATION WILL BE PERFORMED ON GPU
Info: FULL ELECTROSTATIC EVALUATION FREQUENCY      2
Info: USING VERLET I (r-RESPA) MTS SCHEME.
Info: C1 SPLITTING OF LONG RANGE ELECTROSTATICS
Info: PLACING ATOMS IN PATCHES BY HYDROGEN GROUPS
Info: RIGID BONDS TO HYDROGEN : ALL
Info:         ERROR TOLERANCE : 1e-08
Info:          MAX ITERATIONS : 100
Info: RIGID WATER USING SETTLE ALGORITHM
Info: RANDOM NUMBER SEED     1743821857
Info: USE HYDROGEN BONDS?    NO
Info: Using AMBER format force field!
Info: AMBER PARM FILE        mobley_6620221.prmtop
Info: COORDINATE PDB         mobley_6620221.pdb
Info: Exclusions will be read from PARM file!
Info: SCNB (VDW SCALING)     2
Info: USING ARITHMETIC MEAN TO COMBINE L-J SIGMA PARAMETERS
Info: BINARY COORDINATES     mobley_6620221_equil.coor
Info: SUMMARY OF PARAMETERS:
Info: 15 BONDS
Info: 20 ANGLES
Info:   20 HARMONIC
Info:   0 COSINE-BASED
Info: 12 DIHEDRAL
Info: 0 IMPROPER
Info: 0 CROSSTERM
Info: 0 VDW
Info: 66 VDW_PAIRS
Info: 0 NBTHOLE_PAIRS
Info: To read alchdata from file: mobley_6620221.pdb
Info: To read alchflag data from column: 5
Info: STRUCTURE SUMMARY:
Info: 2929 ATOMS
Info: 2930 BONDS
Info: 56 ANGLES
Info: 93 DIHEDRALS
Info: 0 IMPROPERS
Info: 0 CROSSTERMS
Info: 3054 EXCLUSIONS
Info: 2913 RIGID BONDS
Info: ALCH: 0 ATOMS TO DISAPPEAR IN FINAL STATE
Info: ALCH: 31 ATOMS TO APPEAR IN FINAL STATE
Info: 5874 DEGREES OF FREEDOM
Info: 982 HYDROGEN GROUPS
Info: 4 ATOMS IN LARGEST HYDROGEN GROUP
Info: 982 MIGRATION GROUPS
Info: 4 ATOMS IN LARGEST MIGRATION GROUP
Info: TOTAL MASS = 17624.7 amu
Info: TOTAL CHARGE = -0.000300046 e
Info: MASS DENSITY = 0.976822 g/cm^3
Info: ATOM DENSITY = 0.0977583 atoms/A^3
Info: ADDED 0 IMPLICIT EXCLUSIONS
Info: NONBONDED TABLE R-SQUARED SPACING: 0.0625
Info: NONBONDED TABLE SIZE: 705 POINTS
Info: REMOVING COM VELOCITY -0.163572 -0.00731386 -0.0825357
Info: Use 3D box decompostion in PME FFT.
Info: Updated CUDA force table with 4096 elements.
Info: Updated CUDA LJ table with 11 x 11 elements.
Info: Found 32 unique exclusion lists needing 124 bytes
TCL: Running for 1500000 steps
ETITLE: TS BOND ANGLE DIHED IMPRP ELECT VDW BOUNDARY MISC KINETIC TOTAL TEMP POTENTIAL TOTALAVG TEMPAVG PRESSURE GPRESSURE VOLUME PRESSAVG GPRESSAVG
ENERGY: 0 5.5472 23.6368 9.5542 0.0000 -10663.6184 1458.2657 0.0000 0.0000 1739.2702 -7427.3444 298.0050 -9166.6146 -7427.3444 298.0050 429.8792 506.4472 29961.6502 429.8792 506.4472
ENERGY: 300000 4.6331 23.1986 12.9050 0.0000 -10660.9958 1488.3077 0.0000 0.0000 1807.2371 -7324.7143 309.6503 -9131.9514 -7367.9554 300.9537 825.9343 870.3989 29849.3228 317.3294 396.4401
ENERGY: 600000 5.1825 27.4559 8.7812 0.0000 -10759.7625 1547.5038 0.0000 0.0000 1751.2023 -7419.6368 300.0494 -9170.8391 -7384.6663 300.0941 1146.3262 1224.2453 29952.2306 351.6770 425.0093
ENERGY: 900000 5.0076 27.3374 13.0818 0.0000 -10691.0502 1469.8883 0.0000 0.0000 1806.3596 -7369.3756 309.5000 -9175.7351 -7389.9801 301.0735 274.4269 284.9012 30201.2854 389.6454 454.0834
ENERGY: 1200000 7.6721 23.8361 11.3155 0.0000 -10514.8166 1340.4717 0.0000 0.0000 1686.9629 -7444.5582 289.0427 -9131.5211 -7397.8670 299.9042 -663.2129 -604.1687 30224.2501 254.3451 319.0772
ENERGY: 1500000 5.1663 26.8789 12.5119 0.0000 -10666.9950 1409.4580 0.0000 0.0000 1724.7336 -7488.2464 295.5143 -9212.9800 -7403.0712 299.5069 -429.0313 -357.2012 30473.7069 76.6008 141.1641
TCL: Running FEP window   2: Lambda1 0.95   Lambda2 0.8999999999999999 [dLambda -0.050000000000000044]
TCL: Setting parameter firsttimestep to 0
TCL: Setting parameter alchLambda to 0.95
Info: NONBONDED TABLE R-SQUARED SPACING: 0.0625
Info: NONBONDED TABLE SIZE: 705 POINTS
TCL: Setting parameter alchLambda2 to 0.8999999999999999
Info: NONBONDED TABLE R-SQUARED SPACING: 0.0625
Info: NONBONDED TABLE SIZE: 705 POINTS
TCL: Running for 1500000 steps
ETITLE: TS BOND ANGLE DIHED IMPRP ELECT VDW BOUNDARY MISC KINETIC TOTAL TEMP POTENTIAL TOTALAVG TEMPAVG PRESSURE GPRESSURE VOLUME PRESSAVG GPRESSAVG
ENERGY: 0 5.1663 26.8789 12.5119 0.0000 -10664.7358 1408.9346 0.0000 0.0000 1723.8517 -7487.3925 295.3632 -9211.2442 -7487.3925 295.3632 -476.5295 -386.4827 30473.7069 -476.5295 -386.4827
ENERGY: 300000 4.2772 21.1503 12.6688 0.0000 -10609.7675 1374.7783 0.0000 0.0000 1775.7138 -7421.1791 304.2492 -9196.8929 -7414.3230 302.3350 -211.7032 -191.7362 29864.9729 121.7488 202.4986
ENERGY: 600000 6.6348 20.7573 12.2586 0.0000 -10650.3762 1417.7135 0.0000 0.0000 1758.2627 -7434.7493 301.2591 -9193.0120 -7436.8556 299.4228 42.7274 47.6432 29978.7270 -254.1857 -187.9085
ENERGY: 900000 6.7488 17.6467 16.0379 0.0000 -10660.3131 1395.5135 0.0000 0.0000 1772.5069 -7451.8593 303.6997 -9224.3662 -7429.0962 300.9699 -316.7717 -288.4235 30134.6575 -237.3658 -175.8747
ENERGY: 1200000 6.5495 23.1542 14.5008 0.0000 -10668.7463 1475.3262 0.0000 0.0000 1789.9156 -7359.3000 306.6825 -9149.2156 -7417.0033 301.2661 637.3698 697.9966 30024.6212 -138.6393 -73.6703
ENERGY: 1500000 3.9916 24.3726 12.9723 0.0000 -10674.7473 1444.8865 0.0000 0.0000 1787.7901 -7400.7342 306.3183 -9188.5243 -7423.7131 300.6528 665.3057 697.9361 29689.1967 -100.3043 -38.4629
TCL: Running FEP window   3: Lambda1 0.8999999999999999 Lambda2 0.8499999999999999 [dLambda -0.050000000000000044]
TCL: Setting parameter firsttimestep to 0
TCL: Setting parameter alchLambda to 0.8999999999999999
Info: NONBONDED TABLE R-SQUARED SPACING: 0.0625
Info: NONBONDED TABLE SIZE: 705 POINTS
TCL: Setting parameter alchLambda2 to 0.8499999999999999
Info: NONBONDED TABLE R-SQUARED SPACING: 0.0625
Info: NONBONDED TABLE SIZE: 705 POINTS
TCL: Running for 1500000 steps
ETITLE: TS BOND ANGLE DIHED IMPRP ELECT VDW BOUNDARY MISC KINETIC TOTAL TEMP POTENTIAL TOTALAVG TEMPAVG PRESSURE GPRESSURE VOLUME PRESSAVG GPRESSAVG
ENERGY: 0 3.9916 24.3726 12.9723 0.0000 -10672.3995 1445.3098 0.0000 0.0000 1786.9075 -7398.8457 306.1671 -9185.7532 -7398.8457 306.1671 611.8431 684.5168 29689.1967 611.8431 684.5168
ENERGY: 300000 5.6416 21.7738 11.1063 0.0000 -10574.3505 1402.2145 0.0000 0.0000 1743.9096 -7389.7048 298.7999 -9133.6144 -7386.4079 302.4390 -36.4168 -5.2181 30341.6808 243.7374 317.4779
ENERGY: 600000 2.5075 20.3088 12.4648 0.0000 -10527.2173 1299.1947 0.0000 0.0000 1733.9823 -7458.7591 297.0989 -9192.7414 -7402.9702 301.0161 -939.1766 -895.2856 30336.2680 119.2637 175.5495
ENERGY: 900000 5.3286 28.3465 12.6478 0.0000 -10641.8306 1400.4307 0.0000 0.0000 1695.3308 -7499.7462 290.4764 -9195.0770 -7417.2519 299.4880 -210.7301 -132.1996 30053.7949 46.8356 107.9417
ENERGY: 1200000 7.1570 18.7244 15.1544 0.0000 -10652.4600 1454.9258 0.0000 0.0000 1749.4502 -7407.0482 299.7492 -9156.4984 -7420.8645 297.7346 502.5646 530.6304 29998.5668 62.8544 119.2389
ENERGY: 1500000 7.4826 22.2181 14.2723 0.0000 -10761.3903 1487.9889 0.0000 0.0000 1733.3367 -7496.0917 296.9883 -9229.4284 -7417.5879 298.1572 528.3680 564.1525 30206.7791 45.8666 101.3046
TCL: Running FEP window   4: Lambda1 0.8499999999999999 Lambda2 0.7999999999999998 [dLambda -0.050000000000000044]
TCL: Setting parameter firsttimestep to 0
TCL: Setting parameter alchLambda to 0.8499999999999999
Info: NONBONDED TABLE R-SQUARED SPACING: 0.0625
Info: NONBONDED TABLE SIZE: 705 POINTS
TCL: Setting parameter alchLambda2 to 0.7999999999999998
Info: NONBONDED TABLE R-SQUARED SPACING: 0.0625
Info: NONBONDED TABLE SIZE: 705 POINTS
TCL: Running for 1500000 steps
ETITLE: TS BOND ANGLE DIHED IMPRP ELECT VDW BOUNDARY MISC KINETIC TOTAL TEMP POTENTIAL TOTALAVG TEMPAVG PRESSURE GPRESSURE VOLUME PRESSAVG GPRESSAVG
ENERGY: 0 7.4826 22.2181 14.2723 0.0000 -10759.1868 1488.6109 0.0000 0.0000 1732.4638 -7494.1391 296.8388 -9226.6029 -7494.1391 296.8388 461.6085 555.8138 30206.7791 461.6085 555.8138
ENERGY: 300000 5.1593 21.1066 12.8762 0.0000 -10612.8260 1431.1016 0.0000 0.0000 1731.6350 -7410.9473 296.6968 -9142.5823 -7409.2360 297.7607 184.7941 268.4544 30202.1746 109.8330 202.8686
ENERGY: 600000 5.5907 20.1621 11.4818 0.0000 -10545.3029 1406.5231 0.0000 0.0000 1771.7087 -7329.8365 303.5629 -9101.5452 -7401.1311 298.7585 -319.6234 -263.8107 30672.0149 7.4198 94.6656
ENERGY: 900000 4.4499 16.4072 14.1505 0.0000 -10591.5744 1468.9861 0.0000 0.0000 1772.9419 -7314.6388 303.7742 -9087.5807 -7403.2721 298.7035 968.5158 1011.3683 29895.3670 90.8437 162.5890
ENERGY: 1200000 5.8905 21.1721 9.6324 0.0000 -10520.7106 1404.4186 0.0000 0.0000 1727.9634 -7351.6335 296.0677 -9079.5970 -7396.9237 298.8273 406.7768 455.4306 29635.9469 144.3659 210.5601
ENERGY: 1500000 10.5976 19.0409 13.7033 0.0000 -10648.5881 1371.4378 0.0000 0.0000 1748.2904 -7485.5180 299.5505 -9233.8084 -7398.0940 298.8314 -545.3364 -515.2002 30135.3425 89.2671 153.1407
TCL: Running FEP window   5: Lambda1 0.7999999999999998 Lambda2 0.7499999999999998 [dLambda -0.050000000000000044]
TCL: Setting parameter firsttimestep to 0
TCL: Setting parameter alchLambda to 0.7999999999999998
Info: NONBONDED TABLE R-SQUARED SPACING: 0.0625
Info: NONBONDED TABLE SIZE: 705 POINTS
TCL: Setting parameter alchLambda2 to 0.7499999999999998
Info: NONBONDED TABLE R-SQUARED SPACING: 0.0625
Info: NONBONDED TABLE SIZE: 705 POINTS
TCL: Running for 1500000 steps
ETITLE: TS BOND ANGLE DIHED IMPRP ELECT VDW BOUNDARY MISC KINETIC TOTAL TEMP POTENTIAL TOTALAVG TEMPAVG PRESSURE GPRESSURE VOLUME PRESSAVG GPRESSAVG
ENERGY: 0 10.5976 19.0409 13.7033 0.0000 -10645.8238 1370.7331 0.0000 0.0000 1747.4007 -7484.3482 299.3980 -9231.7490 -7484.3482 299.3980 -633.9336 -539.9179 30135.3425 -633.9336 -539.9179
ENERGY: 300000 6.5608 21.9924 9.4742 0.0000 -10527.7094 1382.5993 0.0000 0.0000 1725.8243 -7381.2585 295.7012 -9107.0828 -7425.5254 298.8296 -320.9818 -289.3297 30199.7361 -247.7294 -195.8444
ENERGY: 600000 7.2072 27.7651 9.0939 0.0000 -10734.0173 1520.4932 0.0000 0.0000 1718.1234 -7451.3345 294.3817 -9169.4578 -7414.1572 298.7378 1241.4726 1254.8034 29592.0061 46.5475 93.3576
ENERGY: 900000 6.2228 21.2015 13.9316 0.0000 -10528.1159 1380.6432 0.0000 0.0000 1799.2762 -7306.8406 308.2863 -9106.1168 -7402.5412 299.5430 50.4636 137.2370 29788.7073 28.1646 76.9035
ENERGY: 1200000 8.7087 24.6539 13.7771 0.0000 -10530.4423 1407.4623 0.0000 0.0000 1767.3229 -7308.5173 302.8115 -9075.8403 -7386.1945 299.8034 148.8660 257.5768 29992.9579 -19.1527 35.8864
ENERGY: 1500000 10.5866 24.1479 13.5748 0.0000 -10562.8907 1372.2530 0.0000 0.0000 1761.6849 -7380.6437 301.8455 -9142.3286 -7375.2497 300.2547 -365.0899 -355.5914 30041.5330 -35.6167 16.7775
TCL: Running FEP window   6: Lambda1 0.7499999999999998 Lambda2 0.6999999999999997 [dLambda -0.050000000000000044]
TCL: Setting parameter firsttimestep to 0
TCL: Setting parameter alchLambda to 0.7499999999999998
Info: NONBONDED TABLE R-SQUARED SPACING: 0.0625
Info: NONBONDED TABLE SIZE: 705 POINTS
TCL: Setting parameter alchLambda2 to 0.6999999999999997
Info: NONBONDED TABLE R-SQUARED SPACING: 0.0625
Info: NONBONDED TABLE SIZE: 705 POINTS
TCL: Running for 1500000 steps
ETITLE: TS BOND ANGLE DIHED IMPRP ELECT VDW BOUNDARY MISC KINETIC TOTAL TEMP POTENTIAL TOTALAVG TEMPAVG PRESSURE GPRESSURE VOLUME PRESSAVG GPRESSAVG
ENERGY: 0 10.5866 24.1479 13.5748 0.0000 -10560.9735 1373.2861 0.0000 0.0000 1760.8131 -7378.5651 301.6961 -9139.3783 -7378.5651 301.6961 -419.5824 -354.9572 30041.5330 -419.5824 -354.9572
ENERGY: 300000 3.5604 19.1761 10.6584 0.0000 -10644.8275 1474.6066 0.0000 0.0000 1801.4492 -7335.3768 308.6587 -9136.8260 -7411.4441 301.4702 583.0823 620.8381 30220.7155 145.5858 172.9659
ENERGY: 600000 6.2381 25.2001 13.9589 0.0000 -10560.5442 1422.7450 0.0000 0.0000 1807.1669 -7285.2353 309.6383 -9092.4022 -7376.3385 302.9949 -341.9921 -264.9196 31024.1406 44.3776 105.4756
ENERGY: 900000 6.0458 21.9250 14.2367 0.0000 -10676.3884 1442.4071 0.0000 0.0000 1822.6445 -7369.1294 312.2902 -9191.7739 -7386.5045 303.0062 205.6900 297.7627 29591.3505 123.2700 184.9005
ENERGY: 1200000 7.3870 23.5540 14.9608 0.0000 -10709.9398 1484.3278 0.0000 0.0000 1760.8281 -7418.8820 301.6987 -9179.7101 -7388.6170 302.5735 513.8887 601.6907 30105.1164 154.6906 219.2152
ENERGY: 1500000 5.9473 20.4575 11.5086 0.0000 -10672.5368 1497.2561 0.0000 0.0000 1784.0861 -7353.2811 305.6837 -9137.3672 -7382.5799 303.2913 666.0125 751.9610 29966.3670 176.7445 246.7903
TCL: Running FEP window   7: Lambda1 0.6999999999999997 Lambda2 0.6499999999999997 [dLambda -0.050000000000000044]
TCL: Setting parameter firsttimestep to 0
TCL: Setting parameter alchLambda to 0.6999999999999997
Info: NONBONDED TABLE R-SQUARED SPACING: 0.0625
Info: NONBONDED TABLE SIZE: 705 POINTS
TCL: Setting parameter alchLambda2 to 0.6499999999999997
Info: NONBONDED TABLE R-SQUARED SPACING: 0.0625
Info: NONBONDED TABLE SIZE: 705 POINTS
TCL: Running for 1500000 steps
ETITLE: TS BOND ANGLE DIHED IMPRP ELECT VDW BOUNDARY MISC KINETIC TOTAL TEMP POTENTIAL TOTALAVG TEMPAVG PRESSURE GPRESSURE VOLUME PRESSAVG GPRESSAVG
ENERGY: 0 5.9473 20.4575 11.5086 0.0000 -10669.8074 1496.9773 0.0000 0.0000 1783.2193 -7351.6974 305.5352 -9134.9166 -7351.6974 305.5352 654.2254 741.7960 29966.3670 654.2254 741.7960
ENERGY: 300000 6.5013 16.5013 15.9068 0.0000 -10559.0261 1359.0327 0.0000 0.0000 1728.7434 -7432.3405 296.2013 -9161.0840 -7404.3043 301.9135 -614.3472 -593.3150 30351.2015 -64.9550 -19.0371
ENERGY: 600000 5.7406 19.0502 10.5152 0.0000 -10694.9714 1476.5814 0.0000 0.0000 1718.6284 -7464.4557 294.4682 -9183.0841 -7420.6255 299.2722 361.4494 443.6250 29964.4728 60.6093 111.7191
ENERGY: 900000 6.9097 21.4501 13.6207 0.0000 -10593.1879 1388.5109 0.0000 0.0000 1758.8980 -7403.7985 301.3680 -9162.6965 -7413.1661 298.1976 -406.4939 -368.7892 30336.4219 -57.8922 -5.9372
ENERGY: 1200000 3.4501 19.9942 17.4956 0.0000 -10752.9750 1495.2188 0.0000 0.0000 1748.5476 -7468.2687 299.5945 -9216.8163 -7411.6305 298.9762 642.5657 698.1810 29652.1007 53.1604 103.7994
ENERGY: 1500000 7.6739 24.6294 14.4330 0.0000 -10610.2123 1390.7777 0.0000 0.0000 1742.8917 -7429.8065 298.6255 -9172.6983 -7407.2343 298.7042 -480.3793 -431.0582 30325.7786 -5.8026 43.6723
TCL: Running FEP window   8: Lambda1 0.6499999999999997 Lambda2 0.5999999999999996 [dLambda -0.050000000000000044]
TCL: Setting parameter firsttimestep to 0
TCL: Setting parameter alchLambda to 0.6499999999999997
Info: NONBONDED TABLE R-SQUARED SPACING: 0.0625
Info: NONBONDED TABLE SIZE: 705 POINTS
TCL: Setting parameter alchLambda2 to 0.5999999999999996
Info: NONBONDED TABLE R-SQUARED SPACING: 0.0625
Info: NONBONDED TABLE SIZE: 705 POINTS
TCL: Running for 1500000 steps
ETITLE: TS BOND ANGLE DIHED IMPRP ELECT VDW BOUNDARY MISC KINETIC TOTAL TEMP POTENTIAL TOTALAVG TEMPAVG PRESSURE GPRESSURE VOLUME PRESSAVG GPRESSAVG
ENERGY: 0 7.6739 24.6294 14.4330 0.0000 -10607.5488 1390.8329 0.0000 0.0000 1742.0209 -7427.9587 298.4763 -9169.9797 -7427.9587 298.4763 -528.1669 -438.6959 30325.7786 -528.1669 -438.6959
ENERGY: 300000 5.8545 26.6252 14.9410 0.0000 -10592.7322 1391.8740 0.0000 0.0000 1720.3578 -7433.0796 294.7645 -9153.4374 -7424.2888 298.1134 -409.4870 -352.8086 30587.3795 -187.0084 -110.7252
ENERGY: 600000 4.3599 24.7726 12.0082 0.0000 -10341.4787 1231.4538 0.0000 0.0000 1728.4526 -7340.4317 296.1515 -9068.8843 -7403.9249 297.5427 -1550.3176 -1483.3899 30678.2184 -347.1925 -282.4781
ENERGY: 900000 8.1930 25.0225 11.8490 0.0000 -10676.7502 1425.2818 0.0000 0.0000 1734.4307 -7471.9731 297.1758 -9206.4038 -7412.9425 297.8671 114.6562 144.6716 29962.8523 -239.1262 -189.0833
ENERGY: 1200000 4.3255 24.1411 16.1042 0.0000 -10526.6295 1363.6671 0.0000 0.0000 1749.3120 -7369.0795 299.7255 -9118.3915 -7394.4872 299.2183 -267.0417 -190.9116 29734.8951 -203.3591 -143.7473
ENERGY: 1500000 2.6953 19.6939 13.7390 0.0000 -10544.1050 1406.3509 0.0000 0.0000 1737.3940 -7364.2319 297.6835 -9101.6259 -7387.5142 299.6782 150.4105 187.7277 30125.9740 -79.0825 -27.1632
TCL: Running FEP window   9: Lambda1 0.5999999999999996 Lambda2 0.5499999999999996 [dLambda -0.050000000000000044]
TCL: Setting parameter firsttimestep to 0
TCL: Setting parameter alchLambda to 0.5999999999999996
Info: NONBONDED TABLE R-SQUARED SPACING: 0.0625
Info: NONBONDED TABLE SIZE: 705 POINTS
TCL: Setting parameter alchLambda2 to 0.5499999999999996
Info: NONBONDED TABLE R-SQUARED SPACING: 0.0625
Info: NONBONDED TABLE SIZE: 705 POINTS
TCL: Running for 1500000 steps
ETITLE: TS BOND ANGLE DIHED IMPRP ELECT VDW BOUNDARY MISC KINETIC TOTAL TEMP POTENTIAL TOTALAVG TEMPAVG PRESSURE GPRESSURE VOLUME PRESSAVG GPRESSAVG
ENERGY: 0 2.6953 19.6939 13.7390 0.0000 -10543.3451 1406.6264 0.0000 0.0000 1736.5291 -7364.0613 297.5353 -9100.5904 -7364.0613 297.5353 94.8259 173.9325 30125.9740 94.8259 173.9325
ENERGY: 300000 3.9838 20.0426 13.6909 0.0000 -10568.8212 1382.1372 0.0000 0.0000 1743.5227 -7405.4440 298.7336 -9148.9667 -7406.6793 297.9180 -175.2036 -139.0189 30056.3449 34.0051 113.0902
ENERGY: 600000 5.8844 19.8399 12.1931 0.0000 -10721.4795 1474.7221 0.0000 0.0000 1735.1325 -7473.7075 297.2960 -9208.8399 -7420.3762 297.3749 255.6165 407.8145 29682.2811 -129.6850 -36.9249
ENERGY: 900000 3.9778 16.7332 14.4471 0.0000 -10400.5770 1303.8838 0.0000 0.0000 1734.4591 -7327.0759 297.1806 -9061.5350 -7396.2742 299.4945 -528.0081 -548.9159 30179.5808 -307.4539 -227.0606
ENERGY: 1200000 5.6864 23.1033 10.4032 0.0000 -10745.4431 1452.3132 0.0000 0.0000 1741.7339 -7512.2031 298.4271 -9253.9370 -7405.3573 299.5666 391.6908 447.3173 29650.5126 -162.9237 -81.0953
ENERGY: 1500000 10.8305 20.1214 12.4988 0.0000 -10506.8987 1345.6413 0.0000 0.0000 1736.4430 -7381.3637 297.5205 -9117.8067 -7402.2404 299.5124 -423.9813 -419.8173 29974.8585 -125.2192 -49.9662
TCL: Running FEP window  10: Lambda1 0.5499999999999996 Lambda2 0.4999999999999996 [dLambda -0.04999999999999999]
TCL: Setting parameter firsttimestep to 0
TCL: Setting parameter alchLambda to 0.5499999999999996
Info: NONBONDED TABLE R-SQUARED SPACING: 0.0625
Info: NONBONDED TABLE SIZE: 705 POINTS
TCL: Setting parameter alchLambda2 to 0.4999999999999996
Info: NONBONDED TABLE R-SQUARED SPACING: 0.0625
Info: NONBONDED TABLE SIZE: 705 POINTS
TCL: Running for 1500000 steps
ETITLE: TS BOND ANGLE DIHED IMPRP ELECT VDW BOUNDARY MISC KINETIC TOTAL TEMP POTENTIAL TOTALAVG TEMPAVG PRESSURE GPRESSURE VOLUME PRESSAVG GPRESSAVG
ENERGY: 0 10.8305 20.1214 12.4988 0.0000 -10506.1672 1346.2733 0.0000 0.0000 1735.5751 -7380.8680 297.3718 -9116.4431 -7380.8680 297.3718 -497.8334 -422.5568 29974.8585 -497.8334 -422.5568
ENERGY: 300000 5.8745 26.1704 10.0719 0.0000 -10473.3280 1336.3173 0.0000 0.0000 1768.0237 -7326.8701 302.9316 -9094.8938 -7357.4089 299.5448 -824.8221 -689.3397 30512.6009 -441.9681 -394.5487
ENERGY: 600000 5.9172 21.2648 12.1067 0.0000 -10565.9167 1437.1941 0.0000 0.0000 1805.9508 -7283.4832 309.4300 -9089.4340 -7342.4048 303.2667 5.7699 101.5958 30763.4282 -185.1560 -133.0232
ENERGY: 900000 3.1516 22.4769 10.3935 0.0000 -10514.8658 1358.7330 0.0000 0.0000 1738.5626 -7381.5483 297.8837 -9120.1108 -7360.0370 301.1661 -420.0239 -364.9613 30082.6399 -117.5887 -62.3957
ENERGY: 1200000 3.9725 20.0870 12.7410 0.0000 -10799.4062 1529.4956 0.0000 0.0000 1781.1295 -7451.9806 305.1771 -9233.1101 -7368.9002 301.4334 366.8233 413.4854 30257.0320 -46.3640 11.7220
ENERGY: 1500000 10.8078 18.5748 9.7080 0.0000 -10617.8179 1421.0748 0.0000 0.0000 1803.2098 -7354.4426 308.9603 -9157.6524 -7369.8073 301.2473 -269.1592 -195.2085 30479.6850 -57.9769 -6.6751
TCL: Running FEP window  11: Lambda1 0.4999999999999996 Lambda2 0.4499999999999996 [dLambda -0.04999999999999999]
TCL: Setting parameter firsttimestep to 0
TCL: Setting parameter alchLambda to 0.4999999999999996
Info: NONBONDED TABLE R-SQUARED SPACING: 0.0625
Info: NONBONDED TABLE SIZE: 705 POINTS
TCL: Setting parameter alchLambda2 to 0.4499999999999996
Info: NONBONDED TABLE R-SQUARED SPACING: 0.0625
Info: NONBONDED TABLE SIZE: 705 POINTS
TCL: Running for 1500000 steps
ETITLE: TS BOND ANGLE DIHED IMPRP ELECT VDW BOUNDARY MISC KINETIC TOTAL TEMP POTENTIAL TOTALAVG TEMPAVG PRESSURE GPRESSURE VOLUME PRESSAVG GPRESSAVG
ENERGY: 0 10.8078 18.5749 9.7080 0.0000 -10617.3028 1421.7336 0.0000 0.0000 1802.3182 -7354.1603 308.8075 -9156.4785 -7354.1603 308.8075 -280.1577 -200.9072 30479.6850 -280.1577 -200.9072
ENERGY: 300000 7.2001 21.3109 15.7121 0.0000 -10587.1226 1464.4033 0.0000 0.0000 1779.8661 -7298.6301 304.9606 -9078.4962 -7377.4162 302.8184 525.7020 601.9801 30074.4295 151.9461 230.2572
ENERGY: 600000 7.6401 27.0950 14.2656 0.0000 -10618.6766 1412.9371 0.0000 0.0000 1734.9824 -7421.7563 297.2703 -9156.7388 -7376.6565 302.1110 -180.6032 -108.7289 29962.7435 207.2040 284.8859
ENERGY: 900000 2.5154 31.4904 9.8779 0.0000 -10625.9924 1418.6055 0.0000 0.0000 1717.6626 -7445.8406 294.3027 -9163.5032 -7365.0182 302.2537 -102.3931 2.6313 29892.0842 -19.2734 61.2660
ENERGY: 1200000 5.2279 27.8797 13.1912 0.0000 -10663.1975 1436.7507 0.0000 0.0000 1804.7362 -7375.4118 309.2219 -9180.1480 -7366.9311 301.5088 44.8885 89.0283 29954.8353 -83.9412 -11.7744
ENERGY: 1500000 5.1150 23.6725 11.8867 0.0000 -10621.7484 1434.6274 0.0000 0.0000 1716.3172 -7430.1296 294.0722 -9146.4468 -7366.5196 301.0142 -37.9943 36.2689 30109.0788 -43.2681 31.8974
TCL: Running FEP window  12: Lambda1 0.4499999999999996 Lambda2 0.39999999999999963 [dLambda -0.04999999999999999]
TCL: Setting parameter firsttimestep to 0
TCL: Setting parameter alchLambda to 0.4499999999999996
Info: NONBONDED TABLE R-SQUARED SPACING: 0.0625
Info: NONBONDED TABLE SIZE: 705 POINTS
TCL: Setting parameter alchLambda2 to 0.39999999999999963
Info: NONBONDED TABLE R-SQUARED SPACING: 0.0625
Info: NONBONDED TABLE SIZE: 705 POINTS
TCL: Running for 1500000 steps
ETITLE: TS BOND ANGLE DIHED IMPRP ELECT VDW BOUNDARY MISC KINETIC TOTAL TEMP POTENTIAL TOTALAVG TEMPAVG PRESSURE GPRESSURE VOLUME PRESSAVG GPRESSAVG
ENERGY: 0 5.1150 23.6725 11.8867 0.0000 -10621.7488 1434.6109 0.0000 0.0000 1715.4415 -7431.0223 293.9222 -9146.4637 -7431.0223 293.9222 -54.6770 22.6829 30109.0788 -54.6770 22.6829
ENERGY: 300000 3.8017 22.9968 13.0566 0.0000 -10664.6544 1454.8516 0.0000 0.0000 1751.1312 -7418.8165 300.0372 -9169.9477 -7404.6990 299.1703 191.3559 221.0269 29937.3081 19.5239 74.8758
ENERGY: 600000 4.1798 25.4884 12.0447 0.0000 -10473.5264 1337.2903 0.0000 0.0000 1726.4525 -7368.0708 295.8088 -9094.5232 -7401.5067 296.7710 -651.3674 -591.3593 30369.6796 -296.1305 -240.2138
ENERGY: 900000 4.0167 21.1889 13.2166 0.0000 -10791.6472 1519.8241 0.0000 0.0000 1748.1141 -7485.2867 299.5203 -9233.4009 -7400.0454 297.7524 460.2011 557.2494 30001.1432 -171.8665 -112.9015
ENERGY: 1200000 7.3939 23.4737 11.8766 0.0000 -10696.6789 1458.5356 0.0000 0.0000 1693.2491 -7502.1499 290.1198 -9195.3990 -7393.0237 298.4772 91.0508 201.9105 29794.2062 -127.3764 -66.2685
ENERGY: 1500000 7.4061 23.8966 13.2689 0.0000 -10589.5759 1422.5046 0.0000 0.0000 1749.4985 -7373.0011 299.7575 -9122.4997 -7392.9084 299.1321 10.8553 -0.2307 30229.2897 -128.6823 -71.2005
TCL: Running FEP window  13: Lambda1 0.39999999999999963 Lambda2 0.34999999999999964 [dLambda -0.04999999999999999]
TCL: Setting parameter firsttimestep to 0
TCL: Setting parameter alchLambda to 0.39999999999999963
Info: NONBONDED TABLE R-SQUARED SPACING: 0.0625
Info: NONBONDED TABLE SIZE: 705 POINTS
TCL: Setting parameter alchLambda2 to 0.34999999999999964
Info: NONBONDED TABLE R-SQUARED SPACING: 0.0625
Info: NONBONDED TABLE SIZE: 705 POINTS
TCL: Running for 1500000 steps
ETITLE: TS BOND ANGLE DIHED IMPRP ELECT VDW BOUNDARY MISC KINETIC TOTAL TEMP POTENTIAL TOTALAVG TEMPAVG PRESSURE GPRESSURE VOLUME PRESSAVG GPRESSAVG
ENERGY: 0 7.4062 23.8966 13.2689 0.0000 -10589.5758 1422.3005 0.0000 0.0000 1748.6096 -7374.0941 299.6052 -9122.7037 -7374.0941 299.6052 -95.5838 -10.4818 30229.2897 -95.5838 -10.4818
ENERGY: 300000 5.2714 28.5057 13.2080 0.0000 -10555.2307 1414.9559 0.0000 0.0000 1734.4855 -7358.8042 297.1851 -9093.2896 -7345.3663 301.9032 -375.7818 -365.1095 30383.3919 -228.3311 -184.2228
ENERGY: 600000 9.4179 23.2997 12.3189 0.0000 -10675.7610 1495.0115 0.0000 0.0000 1750.4749 -7385.2381 299.9248 -9135.7129 -7359.3497 299.8966 589.5646 647.2260 30038.6539 -103.9356 -48.2288
ENERGY: 900000 5.9135 21.6855 13.2560 0.0000 -10485.2618 1361.2875 0.0000 0.0000 1741.1189 -7342.0005 298.3217 -9083.1194 -7366.7615 298.3761 -189.0763 -87.1721 30139.7303 -122.1210 -70.6790
ENERGY: 1200000 6.5537 19.5942 10.9069 0.0000 -10512.1830 1406.1467 0.0000 0.0000 1752.5046 -7316.4770 300.2725 -9068.9815 -7358.2719 299.0831 200.8816 306.1856 29772.1899 44.3149 91.1439
ENERGY: 1500000 6.2584 23.3718 14.1400 0.0000 -10589.9446 1480.5066 0.0000 0.0000 1781.3157 -7284.3521 305.2090 -9065.6678 -7365.1595 299.1873 671.7586 699.6530 29806.0374 71.1998 115.2834
TCL: Running FEP window  14: Lambda1 0.34999999999999964 Lambda2 0.29999999999999966 [dLambda -0.04999999999999999]
TCL: Setting parameter firsttimestep to 0
TCL: Setting parameter alchLambda to 0.34999999999999964
Info: NONBONDED TABLE R-SQUARED SPACING: 0.0625
Info: NONBONDED TABLE SIZE: 705 POINTS
TCL: Setting parameter alchLambda2 to 0.29999999999999966
Info: NONBONDED TABLE R-SQUARED SPACING: 0.0625
Info: NONBONDED TABLE SIZE: 705 POINTS
TCL: Running for 1500000 steps
ETITLE: TS BOND ANGLE DIHED IMPRP ELECT VDW BOUNDARY MISC KINETIC TOTAL TEMP POTENTIAL TOTALAVG TEMPAVG PRESSURE GPRESSURE VOLUME PRESSAVG GPRESSAVG
ENERGY: 0 6.2584 23.3718 14.1400 0.0000 -10589.9444 1480.8882 0.0000 0.0000 1780.4585 -7284.8275 305.0621 -9065.2860 -7284.8275 305.0621 600.2802 692.2393 29806.0374 600.2802 692.2393
ENERGY: 300000 5.8244 22.4816 9.7343 0.0000 -10585.5724 1443.7852 0.0000 0.0000 1777.1780 -7326.5689 304.5001 -9103.7469 -7329.9322 302.4118 156.8228 181.0311 30366.3249 -11.5426 40.9214
ENERGY: 600000 3.0442 27.7239 9.2641 0.0000 -10762.7892 1511.8214 0.0000 0.0000 1743.0104 -7467.9253 298.6458 -9210.9357 -7363.9040 301.1781 619.8593 657.5963 29832.8422 -143.5289 -85.8344
ENERGY: 900000 9.9835 21.6510 12.0202 0.0000 -10617.3810 1408.7593 0.0000 0.0000 1734.8826 -7430.0843 297.2532 -9164.9670 -7369.3371 299.6782 -83.7277 7.3238 29961.9452 -141.0830 -84.5576
ENERGY: 1200000 5.0060 26.8864 11.7633 0.0000 -10486.6342 1316.3426 0.0000 0.0000 1763.4542 -7363.1817 302.1486 -9126.6359 -7366.5105 300.2728 -961.0090 -918.9321 30027.1085 -206.1853 -149.8753
ENERGY: 1500000 6.5551 23.6835 11.4252 0.0000 -10695.5795 1504.4312 0.0000 0.0000 1733.6631 -7415.8214 297.0442 -9149.4845 -7380.6222 299.3876 459.5767 528.3271 30152.5628 -131.0636 -64.1928
TCL: Running FEP window  15: Lambda1 0.29999999999999966 Lambda2 0.24999999999999967 [dLambda -0.04999999999999999]
TCL: Setting parameter firsttimestep to 0
TCL: Setting parameter alchLambda to 0.29999999999999966
Info: NONBONDED TABLE R-SQUARED SPACING: 0.0625
Info: NONBONDED TABLE SIZE: 705 POINTS
TCL: Setting parameter alchLambda2 to 0.24999999999999967
Info: NONBONDED TABLE R-SQUARED SPACING: 0.0625
Info: NONBONDED TABLE SIZE: 705 POINTS
TCL: Running for 1500000 steps
ETITLE: TS BOND ANGLE DIHED IMPRP ELECT VDW BOUNDARY MISC KINETIC TOTAL TEMP POTENTIAL TOTALAVG TEMPAVG PRESSURE GPRESSURE VOLUME PRESSAVG GPRESSAVG
ENERGY: 0 6.5551 23.6835 11.4252 0.0000 -10695.5797 1504.6264 0.0000 0.0000 1732.7840 -7416.5055 296.8936 -9149.2895 -7416.5055 296.8936 431.2728 520.7048 30152.5628 431.2728 520.7048
ENERGY: 300000 6.0753 19.6140 17.5532 0.0000 -10617.6338 1408.0992 0.0000 0.0000 1763.2018 -7403.0903 302.1054 -9166.2921 -7397.0784 297.3084 122.1077 205.5359 29465.5350 36.0506 98.9551
ENERGY: 600000 5.0422 24.3957 10.1607 0.0000 -10538.7940 1368.6556 0.0000 0.0000 1739.2341 -7391.3058 297.9988 -9130.5399 -7373.6410 300.0138 -757.8086 -698.7345 30493.9318 47.7087 116.3753
ENERGY: 900000 4.1746 19.9742 12.8427 0.0000 -10739.1083 1551.8046 0.0000 0.0000 1724.9224 -7425.3899 295.5466 -9150.3122 -7382.4601 301.1583 817.3237 808.4745 30312.1160 62.8634 122.0113
ENERGY: 1200000 3.5657 24.6938 13.6221 0.0000 -10504.3240 1334.8673 0.0000 0.0000 1682.0904 -7445.4846 288.2078 -9127.5750 -7383.6581 299.8944 -740.9821 -696.0609 30038.6764 55.3831 116.9867
ENERGY: 1500000 4.3070 23.8728 9.9914 0.0000 -10726.5963 1516.0166 0.0000 0.0000 1739.2113 -7433.1972 297.9949 -9172.4085 -7387.3342 300.3154 555.7159 611.9039 30058.7867 98.3149 165.3495
TCL: Running FEP window  16: Lambda1 0.24999999999999967 Lambda2 0.19999999999999968 [dLambda -0.04999999999999999]
TCL: Setting parameter firsttimestep to 0
TCL: Setting parameter alchLambda to 0.24999999999999967
Info: NONBONDED TABLE R-SQUARED SPACING: 0.0625
Info: NONBONDED TABLE SIZE: 705 POINTS
TCL: Setting parameter alchLambda2 to 0.19999999999999968
Info: NONBONDED TABLE R-SQUARED SPACING: 0.0625
Info: NONBONDED TABLE SIZE: 705 POINTS
TCL: Running for 1500000 steps
ETITLE: TS BOND ANGLE DIHED IMPRP ELECT VDW BOUNDARY MISC KINETIC TOTAL TEMP POTENTIAL TOTALAVG TEMPAVG PRESSURE GPRESSURE VOLUME PRESSAVG GPRESSAVG
ENERGY: 0 4.3070 23.8728 9.9914 0.0000 -10726.5972 1516.5968 0.0000 0.0000 1738.3148 -7433.5144 297.8413 -9171.8292 -7433.5144 297.8413 517.1652 604.7971 30058.7867 517.1652 604.7971
ENERGY: 300000 6.3499 17.1519 13.9442 0.0000 -10661.6767 1394.2749 0.0000 0.0000 1756.2394 -7473.7164 300.9124 -9229.9557 -7397.8344 301.5521 -249.5769 -260.8129 29542.4479 -16.6745 17.9517
ENERGY: 600000 9.9146 25.6167 14.5745 0.0000 -10663.6130 1526.9349 0.0000 0.0000 1739.2655 -7347.3069 298.0041 -9086.5723 -7390.4718 299.5820 761.0877 892.4616 30297.5460 -35.6716 16.5896
ENERGY: 900000 7.6726 19.7974 14.2195 0.0000 -10667.0889 1504.2438 0.0000 0.0000 1704.3660 -7416.7896 292.0245 -9121.1556 -7394.4947 298.4658 187.6792 260.4910 30457.7658 32.4415 88.7754
ENERGY: 1200000 8.1863 27.4917 11.1444 0.0000 -10679.1857 1465.3540 0.0000 0.0000 1736.5266 -7430.4827 297.5349 -9167.0093 -7393.2692 299.4707 104.3644 152.7024 29934.5034 95.8091 152.2396
ENERGY: 1500000 8.0713 22.2415 14.9378 0.0000 -10575.9875 1379.2008 0.0000 0.0000 1727.2559 -7424.2800 295.9465 -9151.5360 -7396.3780 298.9188 -577.1504 -506.3112 29864.2752 81.6594 141.7606
TCL: Running FEP window  17: Lambda1 0.19999999999999968 Lambda2 0.1499999999999997 [dLambda -0.04999999999999999]
TCL: Setting parameter firsttimestep to 0
TCL: Setting parameter alchLambda to 0.19999999999999968
Info: NONBONDED TABLE R-SQUARED SPACING: 0.0625
Info: NONBONDED TABLE SIZE: 705 POINTS
TCL: Setting parameter alchLambda2 to 0.1499999999999997
Info: NONBONDED TABLE R-SQUARED SPACING: 0.0625
Info: NONBONDED TABLE SIZE: 705 POINTS
TCL: Running for 1500000 steps
ETITLE: TS BOND ANGLE DIHED IMPRP ELECT VDW BOUNDARY MISC KINETIC TOTAL TEMP POTENTIAL TOTALAVG TEMPAVG PRESSURE GPRESSURE VOLUME PRESSAVG GPRESSAVG
ENERGY: 0 8.0713 22.2415 14.9378 0.0000 -10575.9865 1379.6505 0.0000 0.0000 1726.3916 -7424.6938 295.7984 -9151.0854 -7424.6938 295.7984 -586.5368 -509.4690 29864.2752 -586.5368 -509.4690
ENERGY: 300000 6.2076 21.5203 11.3616 0.0000 -10518.1669 1397.4321 0.0000 0.0000 1782.3960 -7299.2493 305.3941 -9081.6453 -7394.2419 297.7046 -314.0478 -264.8622 29956.3116 -318.0831 -267.2095
ENERGY: 600000 7.4140 24.2217 11.1487 0.0000 -10584.2717 1382.7399 0.0000 0.0000 1767.1586 -7391.5888 302.7833 -9158.7474 -7383.5780 299.8937 -752.3665 -734.5857 30137.8067 -355.8174 -293.2180
ENERGY: 900000 8.6028 20.3454 13.9031 0.0000 -10629.3366 1472.7386 0.0000 0.0000 1737.2977 -7376.4490 297.6670 -9113.7468 -7377.6421 300.8846 370.7883 412.9806 30092.2771 -272.4501 -218.0561
ENERGY: 1200000 3.2878 18.4241 10.4287 0.0000 -10619.0706 1402.6225 0.0000 0.0000 1729.9040 -7454.4034 296.4002 -9184.3074 -7397.6240 299.5714 -20.9515 6.9214 29357.0099 -136.0221 -80.8131
ENERGY: 1500000 5.0785 20.0721 8.5085 0.0000 -10556.7794 1427.5746 0.0000 0.0000 1761.0998 -7334.4459 301.7452 -9095.5457 -7386.1286 299.5896 251.2620 347.5599 29717.1785 -86.8440 -30.1484
TCL: Running FEP window  18: Lambda1 0.1499999999999997 Lambda2 0.09999999999999969 [dLambda -0.05 ]
TCL: Setting parameter firsttimestep to 0
TCL: Setting parameter alchLambda to 0.1499999999999997
Info: NONBONDED TABLE R-SQUARED SPACING: 0.0625
Info: NONBONDED TABLE SIZE: 705 POINTS
TCL: Setting parameter alchLambda2 to 0.09999999999999969
Info: NONBONDED TABLE R-SQUARED SPACING: 0.0625
Info: NONBONDED TABLE SIZE: 705 POINTS
TCL: Running for 1500000 steps
ETITLE: TS BOND ANGLE DIHED IMPRP ELECT VDW BOUNDARY MISC KINETIC TOTAL TEMP POTENTIAL TOTALAVG TEMPAVG PRESSURE GPRESSURE VOLUME PRESSAVG GPRESSAVG
ENERGY: 0 5.0785 20.0721 8.5085 0.0000 -10556.7797 1427.9508 0.0000 0.0000 1760.2446 -7334.9251 301.5987 -9095.1697 -7334.9251 301.5987 260.8459 346.3588 29717.1785 260.8459 346.3588
ENERGY: 300000 5.3738 23.4559 8.0780 0.0000 -10515.6240 1351.3559 0.0000 0.0000 1737.0510 -7390.3094 297.6247 -9127.3604 -7380.6246 298.0901 -626.1238 -560.4266 30059.2308 -225.6180 -166.0853
ENERGY: 600000 9.0636 23.9147 11.0067 0.0000 -10548.4770 1405.2789 0.0000 0.0000 1768.0501 -7331.1630 302.9361 -9099.2131 -7376.5685 299.0551 31.5570 57.8448 30117.4676 1.1411 41.9199
ENERGY: 900000 2.9064 26.3380 13.0318 0.0000 -10551.2072 1422.4484 0.0000 0.0000 1723.4750 -7363.0076 295.2986 -9086.4826 -7371.5698 300.8722 430.1193 509.0153 29334.4871 72.9251 118.7673
ENERGY: 1200000 2.6533 18.3197 13.7958 0.0000 -10543.1815 1373.4710 0.0000 0.0000 1832.1655 -7302.7763 313.9216 -9134.9418 -7377.4649 301.2008 -274.3517 -182.3544 29760.0618 -33.2726 6.6035
ENERGY: 1500000 4.4622 22.1643 10.9971 0.0000 -10653.7447 1415.0186 0.0000 0.0000 1771.9569 -7429.1457 303.6055 -9201.1025 -7378.1761 301.3811 -116.2733 -31.7738 29869.6008 -122.7309 -75.5708
TCL: Running FEP window  19: Lambda1 0.09999999999999969 Lambda2 0.049999999999999684 [dLambda -0.05 ]
TCL: Setting parameter firsttimestep to 0
TCL: Setting parameter alchLambda to 0.09999999999999969
Info: NONBONDED TABLE R-SQUARED SPACING: 0.0625
Info: NONBONDED TABLE SIZE: 705 POINTS
TCL: Setting parameter alchLambda2 to 0.049999999999999684
Info: NONBONDED TABLE R-SQUARED SPACING: 0.0625
Info: NONBONDED TABLE SIZE: 705 POINTS
TCL: Running for 1500000 steps
ETITLE: TS BOND ANGLE DIHED IMPRP ELECT VDW BOUNDARY MISC KINETIC TOTAL TEMP POTENTIAL TOTALAVG TEMPAVG PRESSURE GPRESSURE VOLUME PRESSAVG GPRESSAVG
ENERGY: 0 4.4622 22.1643 10.9971 0.0000 -10653.7433 1413.9249 0.0000 0.0000 1771.0836 -7431.1112 303.4558 -9202.1948 -7431.1112 303.4558 -114.9469 -42.8323 29869.6008 -114.9469 -42.8323
ENERGY: 300000 6.3469 27.9139 12.6127 0.0000 -10559.2785 1394.9081 0.0000 0.0000 1748.9459 -7368.5509 299.6628 -9117.4968 -7378.3075 302.7913 -305.4380 -266.3143 29851.9832 -241.8154 -205.7204
ENERGY: 600000 2.2230 27.0161 13.7833 0.0000 -10560.2763 1384.3321 0.0000 0.0000 1717.1510 -7415.7709 294.2151 -9132.9218 -7387.5890 300.7204 -177.2576 -90.7272 29697.2703 -139.6072 -78.8868
ENERGY: 900000 4.7355 20.1503 14.7688 0.0000 -10636.0849 1434.9131 0.0000 0.0000 1776.5865 -7384.9307 304.3987 -9161.5172 -7390.9549 299.9559 279.2085 359.5650 29830.1133 -57.2703 3.2747
ENERGY: 1200000 7.0762 23.0920 10.4631 0.0000 -10611.4356 1402.9991 0.0000 0.0000 1757.9012 -7409.9040 301.1972 -9167.8052 -7388.4386 300.6145 -156.6583 -113.6086 29667.9018 -53.3879 2.0871
ENERGY: 1500000 3.6585 21.5984 13.2964 0.0000 -10642.7613 1430.2530 0.0000 0.0000 1778.7664 -7395.1886 304.7722 -9173.9550 -7381.6583 301.3523 -263.1062 -199.0486 30163.0484 -157.9632 -97.8180
TCL: Running FEP window  20: Lambda1 0.049999999999999684 Lambda2 0.0    [dLambda -0.049999999999999684]
TCL: Setting parameter firsttimestep to 0
TCL: Setting parameter alchLambda to 0.049999999999999684
Info: NONBONDED TABLE R-SQUARED SPACING: 0.0625
Info: NONBONDED TABLE SIZE: 705 POINTS
TCL: Setting parameter alchLambda2 to 0.0
Info: NONBONDED TABLE R-SQUARED SPACING: 0.0625
Info: NONBONDED TABLE SIZE: 705 POINTS
TCL: Running for 1500000 steps
ETITLE: TS BOND ANGLE DIHED IMPRP ELECT VDW BOUNDARY MISC KINETIC TOTAL TEMP POTENTIAL TOTALAVG TEMPAVG PRESSURE GPRESSURE VOLUME PRESSAVG GPRESSAVG
ENERGY: 0 3.6585 21.5984 13.2964 0.0000 -10642.7614 1429.3331 0.0000 0.0000 1777.8911 -7396.9838 304.6222 -9174.8750 -7396.9838 304.6222 -286.7300 -204.6063 30163.0484 -286.7300 -204.6063
ENERGY: 300000 4.0926 23.4073 14.5765 0.0000 -10621.4171 1447.6203 0.0000 0.0000 1732.6089 -7399.1116 296.8636 -9131.7205 -7367.8413 302.4432 -148.5878 -148.9296 30093.8275 32.2982 85.9072
ENERGY: 600000 7.1059 21.5043 10.2118 0.0000 -10532.1581 1380.5526 0.0000 0.0000 1721.4612 -7391.3222 294.9536 -9112.7834 -7386.2835 300.3332 -170.7126 -152.7702 29705.6385 -85.7381 -52.1365
ENERGY: 900000 4.5982 20.3357 13.0268 0.0000 -10562.2036 1420.6936 0.0000 0.0000 1690.6160 -7412.9334 289.6686 -9103.5494 -7386.9185 299.5789 169.1667 185.2286 29879.6717 -111.1163 -66.7249
ENERGY: 1200000 8.7920 19.6694 11.8026 0.0000 -10694.8086 1490.2328 0.0000 0.0000 1775.6216 -7388.6903 304.2334 -9164.3119 -7397.2801 299.7463 352.4355 344.8762 30028.2338 -144.3923 -104.7129
ENERGY: 1500000 4.5645 24.0659 12.0195 0.0000 -10731.5526 1512.8985 0.0000 0.0000 1786.1911 -7391.8131 306.0443 -9178.0042 -7395.9944 300.2331 837.3452 827.3926 29404.8552 -57.3617 -21.6270
TCL: Exiting due to exit command.
